 
data_shelx
 
_audit_creation_method            'SHELXL-2018/3'
_shelx_SHELXL_version_number      '2018/3'
_chemical_name_systematic         ?
_chemical_name_common             ?
_chemical_melting_point           ?
_chemical_formula_moiety          ?
_chemical_formula_sum
 'C20 H30 N2 O' 
_chemical_formula_weight          314.46

loop_
 _atom_type_symbol
 _atom_type_description
 _atom_type_scat_dispersion_real
 _atom_type_scat_dispersion_imag
 _atom_type_scat_source
 'C'  'C'   0.0181   0.0091
 'International Tables Vol C Tables 4.2.6.8 and 6.1.1.4'
 'H'  'H'   0.0000   0.0000
 'International Tables Vol C Tables 4.2.6.8 and 6.1.1.4'
 'N'  'N'   0.0311   0.0180
 'International Tables Vol C Tables 4.2.6.8 and 6.1.1.4'
 'O'  'O'   0.0492   0.0322
 'International Tables Vol C Tables 4.2.6.8 and 6.1.1.4'
 
_space_group_crystal_system       orthorhombic
_space_group_IT_number            18
_space_group_name_H-M_alt         'P 21 21 2'
_space_group_name_Hall            'P 2 2ab'
 
_shelx_space_group_comment
;
The symmetry employed for this shelxl refinement is uniquely defined
by the following loop, which should always be used as a source of
symmetry information in preference to the above space-group names.
They are only intended as comments.
;
 
loop_
 _space_group_symop_operation_xyz
 'x, y, z'
 '-x, -y, z'
 'x+1/2, -y+1/2, -z'
 '-x+1/2, y+1/2, -z'
 
_cell_length_a                    12.4043(5)
_cell_length_b                    23.6550(10)
_cell_length_c                    6.3342(3)
_cell_angle_alpha                 90
_cell_angle_beta                  90
_cell_angle_gamma                 90
_cell_volume                      1858.60(14)
_cell_formula_units_Z             4
_cell_measurement_temperature     250(2)
_cell_measurement_reflns_used     5690
_cell_measurement_theta_min       4,02
_cell_measurement_theta_max       66,95
 
_exptl_crystal_description        plate
_exptl_crystal_colour             colourless
_exptl_crystal_density_meas       ?
_exptl_crystal_density_method     ?
_exptl_crystal_density_diffrn     1.124          
_exptl_crystal_F_000              688
_exptl_transmission_factor_min    ?
_exptl_transmission_factor_max    ?
_exptl_crystal_size_max           0.250
_exptl_crystal_size_mid           0.090
_exptl_crystal_size_min           0.020
_exptl_absorpt_coefficient_mu     0.531
_shelx_estimated_absorpt_T_min    0.879
_shelx_estimated_absorpt_T_max    0.989
_exptl_absorpt_correction_type    ?
_exptl_absorpt_correction_T_min   ?
_exptl_absorpt_correction_T_max   ?
_exptl_absorpt_process_details    ?
_exptl_absorpt_special_details    ?
_diffrn_ambient_temperature       250(2)
_diffrn_radiation_wavelength      1.54178
_diffrn_radiation_type            CuK\a
_diffrn_source                    'microfocus sealed tube'
_diffrn_measurement_device_type   "Bruker D8 VENTURE PHOTON III-14"
_diffrn_measurement_method        'omega and phi'
_diffrn_detector_area_resol_mean  ?
_diffrn_reflns_number             20045
_diffrn_reflns_av_unetI/netI      0.0366
_diffrn_reflns_av_R_equivalents   0.0505
_diffrn_reflns_limit_h_min        -13
_diffrn_reflns_limit_h_max        15
_diffrn_reflns_limit_k_min        -28
_diffrn_reflns_limit_k_max        28
_diffrn_reflns_limit_l_min        -7
_diffrn_reflns_limit_l_max        4
_diffrn_reflns_theta_min          4.024
_diffrn_reflns_theta_max          70.070
_diffrn_reflns_theta_full         67.679
_diffrn_measured_fraction_theta_max   0.987
_diffrn_measured_fraction_theta_full  0.992
_diffrn_reflns_Laue_measured_fraction_max    0.987
_diffrn_reflns_Laue_measured_fraction_full   0.992
_diffrn_reflns_point_group_measured_fraction_max   0.978
_diffrn_reflns_point_group_measured_fraction_full  0.988
_reflns_number_total              3442
_reflns_number_gt                 2721
_reflns_threshold_expression      'I > 2\s(I)'
_reflns_Friedel_coverage          0.700
_reflns_Friedel_fraction_max      0.965
_reflns_Friedel_fraction_full     0.981

 
_reflns_special_details
;
 Reflections were merged by SHELXL according to the crystal
 class for the calculation of statistics and refinement.
 
 _reflns_Friedel_fraction is defined as the number of unique
 Friedel pairs measured divided by the number that would be
 possible theoretically, ignoring centric projections and
 systematic absences.
;
 
_computing_data_collection        'BRUKER APEX4'
_computing_cell_refinement        'BRUKER APEX4'
_computing_data_reduction         ?
_computing_structure_solution     ?
_computing_structure_refinement 'SHELXL-2018/3 (Sheldrick, 2018)'
_computing_molecular_graphics     ?
_computing_publication_material   ?
_refine_special_details           ?
_refine_ls_structure_factor_coef  Fsqd
_refine_ls_matrix_type            full
_refine_ls_weighting_scheme       calc
_refine_ls_weighting_details
'w=1/[\s^2^(Fo^2^)+(0.0570P)^2^+0.1456P] where P=(Fo^2^+2Fc^2^)/3'
_atom_sites_solution_primary      ?
_atom_sites_solution_secondary    ?
_atom_sites_solution_hydrogens    mixed
_refine_ls_hydrogen_treatment     mixed
_refine_ls_extinction_method      none
_refine_ls_extinction_coef        .
_refine_ls_abs_structure_details
;
 Flack x determined using 968 quotients [(I+)-(I-)]/[(I+)+(I-)]
 (Parsons, Flack and Wagner, Acta Cryst. B69 (2013) 249-259).
;
_refine_ls_abs_structure_Flack    -0.04(14)
_chemical_absolute_configuration  S
_refine_ls_number_reflns          3442
_refine_ls_number_parameters      214
_refine_ls_number_restraints      0
_refine_ls_R_factor_all           0.0606
_refine_ls_R_factor_gt            0.0415
_refine_ls_wR_factor_ref          0.1062
_refine_ls_wR_factor_gt           0.0983
_refine_ls_goodness_of_fit_ref    1.055
_refine_ls_restrained_S_all       1.055
_refine_ls_shift/su_max           0.003
_refine_ls_shift/su_mean          0.000
 
loop_
 _atom_site_label
 _atom_site_type_symbol
 _atom_site_fract_x
 _atom_site_fract_y
 _atom_site_fract_z
 _atom_site_U_iso_or_equiv
 _atom_site_adp_type
 _atom_site_occupancy
 _atom_site_site_symmetry_order  
 _atom_site_calc_flag
 _atom_site_refinement_flags_posn
 _atom_site_refinement_flags_adp
 _atom_site_refinement_flags_occupancy
 _atom_site_disorder_assembly
 _atom_site_disorder_group
O1 O 0.64946(13) 0.65428(7) 0.5807(3) 0.0429(5) Uani 1 1 d . . . . .
N2 N 0.67249(16) 0.69370(8) 0.9016(3) 0.0370(5) Uani 1 1 d . . . . .
C18 C 0.5609(2) 0.68028(11) 0.9560(4) 0.0457(6) Uani 1 1 d . . . . .
H18A H 0.517405 0.680429 0.826789 0.055 Uiso 1 1 calc R U . . .
H18B H 0.532757 0.709875 1.049182 0.055 Uiso 1 1 calc R U . . .
C17 C 0.7413(2) 0.71223(11) 1.0769(4) 0.0436(6) Uani 1 1 d . . . . .
H17A H 0.816949 0.706973 1.036590 0.052 Uiso 1 1 calc R U . . .
H17B H 0.727235 0.688097 1.199577 0.052 Uiso 1 1 calc R U . . .
C19 C 0.7245(3) 0.77334(12) 1.1401(5) 0.0584(8) Uani 1 1 d . . . . .
H19A H 0.648915 0.779616 1.171443 0.088 Uiso 1 1 calc R U . . .
H19B H 0.746439 0.797850 1.025072 0.088 Uiso 1 1 calc R U . . .
H19C H 0.767424 0.781702 1.264258 0.088 Uiso 1 1 calc R U . . .
C20 C 0.5484(3) 0.62397(15) 1.0632(5) 0.0708(9) Uani 1 1 d . . . . .
H20A H 0.587236 0.624350 1.196188 0.106 Uiso 1 1 calc R U . . .
H20B H 0.577395 0.594486 0.973193 0.106 Uiso 1 1 calc R U . . .
H20C H 0.472642 0.616751 1.089556 0.106 Uiso 1 1 calc R U . . .
H8 H 0.813(2) 0.6004(11) 0.349(5) 0.052(8) Uiso 1 1 d . . . . .
N1 N 0.97405(16) 0.69332(9) 0.4674(3) 0.0410(5) Uani 1 1 d . . . . .
C12 C 0.88641(19) 0.66119(10) 0.5230(4) 0.0364(6) Uani 1 1 d . . . . .
C8 C 0.8739(2) 0.60089(10) 0.4495(4) 0.0411(6) Uani 1 1 d . . . . .
C13 C 0.9636(2) 0.74651(11) 0.5507(4) 0.0445(6) Uani 1 1 d . . . . .
H13 H 1.012757 0.776415 0.533904 0.053 Uiso 1 1 calc R U . . .
C14 C 0.8700(2) 0.74860(11) 0.6617(4) 0.0415(6) Uani 1 1 d . . . . .
H14 H 0.843204 0.779987 0.736017 0.050 Uiso 1 1 calc R U . . .
C15 C 0.81986(19) 0.69463(10) 0.6452(4) 0.0344(5) Uani 1 1 d . . . . .
C16 C 0.7088(2) 0.67870(10) 0.7075(4) 0.0345(6) Uani 1 1 d . . . . .
C11 C 1.0642(2) 0.67387(13) 0.3381(5) 0.0547(7) Uani 1 1 d . . . . .
H11A H 1.123264 0.661178 0.429253 0.066 Uiso 1 1 calc R U . . .
H11B H 1.090796 0.705040 0.250425 0.066 Uiso 1 1 calc R U . . .
C7 C 0.8480(2) 0.56216(11) 0.6308(4) 0.0470(7) Uani 1 1 d . . . . .
H7 H 0.896316 0.563204 0.745051 0.056 Uiso 1 1 calc R U . . .
C6 C 0.7656(2) 0.52668(11) 0.6503(4) 0.0481(7) Uani 1 1 d . . . . .
C4 C 0.6782(3) 0.51805(12) 0.4896(5) 0.0610(8) Uani 1 1 d . . . . .
H4A H 0.694617 0.540245 0.363004 0.073 Uiso 1 1 calc R U . . .
H4B H 0.609544 0.531634 0.547049 0.073 Uiso 1 1 calc R U . . .
C5 C 0.7525(3) 0.48945(13) 0.8429(5) 0.0645(9) Uani 1 1 d . . . . .
H5A H 0.815762 0.493732 0.934165 0.077 Uiso 1 1 calc R U . . .
H5B H 0.689078 0.501823 0.922820 0.077 Uiso 1 1 calc R U . . .
C1 C 0.6511(3) 0.41947(14) 0.6234(6) 0.0771(11) Uani 1 1 d . . . . .
H1A H 0.581234 0.428158 0.687946 0.093 Uiso 1 1 calc R U . . .
H1B H 0.650138 0.379742 0.579578 0.093 Uiso 1 1 calc R U . . .
C9 C 0.9753(2) 0.58024(12) 0.3318(6) 0.0598(8) Uani 1 1 d . . . . .
H9A H 1.027756 0.566320 0.435149 0.072 Uiso 1 1 calc R U . . .
H9B H 0.955523 0.548536 0.240049 0.072 Uiso 1 1 calc R U . . .
C2 C 0.6674(3) 0.45681(14) 0.4306(6) 0.0760(10) Uani 1 1 d . . . . .
H2A H 0.732557 0.444695 0.355580 0.091 Uiso 1 1 calc R U . . .
H2B H 0.606040 0.452226 0.334801 0.091 Uiso 1 1 calc R U . . .
C3 C 0.7396(3) 0.42819(13) 0.7849(5) 0.0661(9) Uani 1 1 d . . . . .
H3A H 0.722758 0.406360 0.912229 0.079 Uiso 1 1 calc R U . . .
H3B H 0.807823 0.413969 0.727720 0.079 Uiso 1 1 calc R U . . .
C10 C 1.0276(3) 0.62591(13) 0.1995(5) 0.0627(8) Uani 1 1 d . . . . .
H10A H 1.089597 0.610140 0.123717 0.075 Uiso 1 1 calc R U . . .
H10B H 0.975927 0.639960 0.094888 0.075 Uiso 1 1 calc R U . . .
 
loop_
 _atom_site_aniso_label
 _atom_site_aniso_U_11
 _atom_site_aniso_U_22
 _atom_site_aniso_U_33
 _atom_site_aniso_U_23
 _atom_site_aniso_U_13
 _atom_site_aniso_U_12
O1 0.0383(10) 0.0522(10) 0.0381(10) -0.0079(8) -0.0022(8) -0.0043(8)
N2 0.0370(11) 0.0456(12) 0.0284(10) -0.0002(9) 0.0000(9) -0.0024(9)
C18 0.0398(14) 0.0595(17) 0.0379(14) -0.0028(13) 0.0063(12) -0.0015(13)
C17 0.0477(15) 0.0549(16) 0.0281(13) 0.0007(11) -0.0068(12) -0.0019(12)
C19 0.072(2) 0.0612(19) 0.0416(16) -0.0106(14) -0.0047(16) -0.0069(15)
C20 0.070(2) 0.082(2) 0.0601(19) 0.0163(18) -0.0009(19) -0.0292(19)
N1 0.0367(11) 0.0462(12) 0.0403(11) 0.0025(10) 0.0051(10) -0.0045(9)
C12 0.0363(13) 0.0384(14) 0.0345(13) 0.0033(11) -0.0015(11) -0.0012(11)
C8 0.0444(15) 0.0368(14) 0.0422(15) 0.0001(12) -0.0011(14) 0.0017(12)
C13 0.0481(16) 0.0423(15) 0.0429(15) 0.0014(13) 0.0001(13) -0.0113(12)
C14 0.0462(15) 0.0413(15) 0.0369(13) -0.0029(12) -0.0009(13) -0.0042(12)
C15 0.0354(13) 0.0375(13) 0.0301(12) 0.0011(10) -0.0028(11) -0.0017(11)
C16 0.0385(14) 0.0343(13) 0.0308(12) 0.0021(10) -0.0031(11) 0.0004(11)
C11 0.0434(15) 0.0646(19) 0.0561(17) 0.0040(15) 0.0134(14) 0.0014(13)
C7 0.0596(18) 0.0384(14) 0.0430(15) 0.0029(12) -0.0107(14) -0.0002(13)
C6 0.0585(16) 0.0422(15) 0.0436(15) 0.0066(12) -0.0049(14) -0.0033(13)
C4 0.0621(18) 0.0549(18) 0.066(2) 0.0117(15) -0.0092(16) -0.0096(16)
C5 0.088(2) 0.0524(18) 0.0535(17) 0.0128(15) -0.0025(19) -0.0057(16)
C1 0.087(3) 0.056(2) 0.088(3) 0.0123(19) -0.006(2) -0.0233(17)
C9 0.0577(19) 0.0486(17) 0.073(2) -0.0055(16) 0.0096(17) 0.0101(14)
C2 0.091(2) 0.067(2) 0.069(2) 0.0036(18) -0.020(2) -0.0270(19)
C3 0.083(2) 0.0516(19) 0.064(2) 0.0133(16) 0.0002(19) -0.0096(16)
C10 0.0566(19) 0.067(2) 0.0650(19) -0.0075(17) 0.0217(17) 0.0085(16)
 
_geom_special_details
;
 All esds (except the esd in the dihedral angle between two l.s. planes)
 are estimated using the full covariance matrix.  The cell esds are taken
 into account individually in the estimation of esds in distances, angles
 and torsion angles; correlations between esds in cell parameters are only
 used when they are defined by crystal symmetry.  An approximate (isotropic)
 treatment of cell esds is used for estimating esds involving l.s. planes.
;
 
loop_
 _geom_bond_atom_site_label_1
 _geom_bond_atom_site_label_2
 _geom_bond_distance
 _geom_bond_site_symmetry_2
 _geom_bond_publ_flag
O1 C16 1.232(3) . ?
N2 C16 1.357(3) . ?
N2 C18 1.461(3) . ?
N2 C17 1.468(3) . ?
C18 C20 1.503(4) . ?
C17 C19 1.514(4) . ?
N1 C13 1.371(3) . ?
N1 C12 1.372(3) . ?
N1 C11 1.461(3) . ?
C12 C15 1.381(3) . ?
C12 C8 1.508(3) . ?
C8 C7 1.504(4) . ?
C8 C9 1.542(4) . ?
C13 C14 1.358(3) . ?
C14 C15 1.424(3) . ?
C15 C16 1.482(3) . ?
C11 C10 1.505(4) . ?
C7 C6 1.328(4) . ?
C6 C4 1.501(4) . ?
C6 C5 1.514(4) . ?
C4 C2 1.502(4) . ?
C5 C3 1.503(4) . ?
C1 C3 1.515(5) . ?
C1 C2 1.521(5) . ?
C9 C10 1.514(4) . ?
 
loop_
 _geom_angle_atom_site_label_1
 _geom_angle_atom_site_label_2
 _geom_angle_atom_site_label_3
 _geom_angle
 _geom_angle_site_symmetry_1
 _geom_angle_site_symmetry_3
 _geom_angle_publ_flag
C16 N2 C18 118.1(2) . . ?
C16 N2 C17 124.8(2) . . ?
C18 N2 C17 116.0(2) . . ?
N2 C18 C20 113.3(2) . . ?
N2 C17 C19 113.9(2) . . ?
C13 N1 C12 109.5(2) . . ?
C13 N1 C11 125.3(2) . . ?
C12 N1 C11 125.2(2) . . ?
N1 C12 C15 107.5(2) . . ?
N1 C12 C8 121.7(2) . . ?
C15 C12 C8 130.8(2) . . ?
C7 C8 C12 111.3(2) . . ?
C7 C8 C9 110.5(2) . . ?
C12 C8 C9 111.4(2) . . ?
C14 C13 N1 108.3(2) . . ?
C13 C14 C15 107.6(2) . . ?
C12 C15 C14 107.1(2) . . ?
C12 C15 C16 124.0(2) . . ?
C14 C15 C16 127.9(2) . . ?
O1 C16 N2 121.0(2) . . ?
O1 C16 C15 120.0(2) . . ?
N2 C16 C15 118.9(2) . . ?
N1 C11 C10 109.5(2) . . ?
C6 C7 C8 128.3(3) . . ?
C7 C6 C4 125.4(3) . . ?
C7 C6 C5 121.7(3) . . ?
C4 C6 C5 112.9(2) . . ?
C6 C4 C2 111.3(3) . . ?
C3 C5 C6 112.0(3) . . ?
C3 C1 C2 111.5(3) . . ?
C10 C9 C8 113.1(2) . . ?
C4 C2 C1 111.9(3) . . ?
C5 C3 C1 111.9(3) . . ?
C11 C10 C9 110.1(3) . . ?
 
_refine_diff_density_max    0.168
_refine_diff_density_min   -0.166
_refine_diff_density_rms    0.032

_shelx_res_file
;
TITL 22MCD035 in P2(1)2(1)2
    shelx.res
    created by SHELXL-2018/3 at 18:05:01 on 28-Sep-2022
CELL  1.54178  12.4043  23.6550   6.3342   90.000   90.000   90.000
ZERR     4.00   0.0005   0.0010   0.0003    0.000    0.000    0.000
LATT  -1
SYMM  - X, - Y,   Z
SYMM  1/2 + X, 1/2 - Y, - Z
SYMM  1/2 - X, 1/2 + Y, - Z
SFAC  C    H    N    O
UNIT  80 120 8 4
MERG   2
OMIT     0.00 180.00
FMAP   2
PLAN   20
SIZE     0.020   0.090   0.250
ACTA
BOND
WPDB   2
L.S.   4
TEMP   -23.15
WGHT    0.057000    0.145600
FVAR       0.35124
O1    4    0.649461    0.654278    0.580706    11.00000    0.03833    0.05217 =
         0.03812   -0.00792   -0.00221   -0.00428
N2    3    0.672487    0.693703    0.901638    11.00000    0.03697    0.04559 =
         0.02836   -0.00022   -0.00003   -0.00237
C18   1    0.560887    0.680282    0.955964    11.00000    0.03978    0.05951 =
         0.03791   -0.00285    0.00628   -0.00151
AFIX  23
H18A  2    0.517405    0.680429    0.826789    11.00000   -1.20000
H18B  2    0.532757    0.709875    1.049182    11.00000   -1.20000
AFIX   0
C17   1    0.741335    0.712234    1.076900    11.00000    0.04772    0.05494 =
         0.02812    0.00068   -0.00681   -0.00194
AFIX  23
H17A  2    0.816949    0.706973    1.036590    11.00000   -1.20000
H17B  2    0.727235    0.688097    1.199577    11.00000   -1.20000
AFIX   0
C19   1    0.724517    0.773342    1.140097    11.00000    0.07232    0.06119 =
         0.04157   -0.01060   -0.00473   -0.00689
AFIX 137
H19A  2    0.648915    0.779616    1.171443    11.00000   -1.50000
H19B  2    0.746439    0.797850    1.025072    11.00000   -1.50000
H19C  2    0.767424    0.781702    1.264258    11.00000   -1.50000
AFIX   0
C20   1    0.548436    0.623974    1.063238    11.00000    0.07013    0.08225 =
         0.06009    0.01629   -0.00088   -0.02918
AFIX 137
H20A  2    0.587236    0.624350    1.196188    11.00000   -1.50000
H20B  2    0.577395    0.594486    0.973193    11.00000   -1.50000
H20C  2    0.472642    0.616751    1.089556    11.00000   -1.50000
AFIX   0
H8    2    0.813375    0.600426    0.349395    11.00000    0.05249
MOLE    1
N1    3    0.974048    0.693322    0.467365    11.00000    0.03665    0.04617 =
         0.04032    0.00251    0.00510   -0.00446
C12   1    0.886413    0.661189    0.522980    11.00000    0.03629    0.03842 =
         0.03447    0.00327   -0.00147   -0.00121
C8    1    0.873891    0.600887    0.449534    11.00000    0.04435    0.03681 =
         0.04223    0.00011   -0.00110    0.00172
C13   1    0.963592    0.746512    0.550701    11.00000    0.04814    0.04229 =
         0.04295    0.00138    0.00007   -0.01127
AFIX  43
H13   2    1.012757    0.776415    0.533904    11.00000   -1.20000
AFIX   0
C14   1    0.870018    0.748597    0.661699    11.00000    0.04622    0.04126 =
         0.03687   -0.00287   -0.00092   -0.00419
AFIX  43
H14   2    0.843204    0.779987    0.736017    11.00000   -1.20000
AFIX   0
C15   1    0.819860    0.694631    0.645151    11.00000    0.03545    0.03748 =
         0.03014    0.00108   -0.00277   -0.00166
C16   1    0.708750    0.678696    0.707451    11.00000    0.03850    0.03430 =
         0.03081    0.00205   -0.00312    0.00044
C11   1    1.064212    0.673873    0.338059    11.00000    0.04343    0.06461 =
         0.05607    0.00404    0.01336    0.00139
AFIX  23
H11A  2    1.123264    0.661178    0.429253    11.00000   -1.20000
H11B  2    1.090796    0.705040    0.250425    11.00000   -1.20000
AFIX   0
C7    1    0.847992    0.562162    0.630804    11.00000    0.05957    0.03840 =
         0.04302    0.00287   -0.01066   -0.00019
AFIX  43
H7    2    0.896316    0.563204    0.745051    11.00000   -1.20000
AFIX   0
C6    1    0.765629    0.526676    0.650268    11.00000    0.05853    0.04224 =
         0.04356    0.00658   -0.00486   -0.00333
C4    1    0.678179    0.518051    0.489619    11.00000    0.06206    0.05493 =
         0.06596    0.01169   -0.00918   -0.00963
AFIX  23
H4A   2    0.694617    0.540245    0.363004    11.00000   -1.20000
H4B   2    0.609544    0.531634    0.547049    11.00000   -1.20000
AFIX   0
C5    1    0.752483    0.489445    0.842928    11.00000    0.08766    0.05238 =
         0.05349    0.01283   -0.00254   -0.00575
AFIX  23
H5A   2    0.815762    0.493732    0.934165    11.00000   -1.20000
H5B   2    0.689078    0.501823    0.922820    11.00000   -1.20000
AFIX   0
C1    1    0.651106    0.419468    0.623440    11.00000    0.08728    0.05631 =
         0.08778    0.01227   -0.00648   -0.02333
AFIX  23
H1A   2    0.581234    0.428158    0.687946    11.00000   -1.20000
H1B   2    0.650138    0.379742    0.579578    11.00000   -1.20000
AFIX   0
C9    1    0.975297    0.580241    0.331801    11.00000    0.05772    0.04858 =
         0.07298   -0.00552    0.00957    0.01010
AFIX  23
H9A   2    1.027756    0.566320    0.435149    11.00000   -1.20000
H9B   2    0.955523    0.548536    0.240049    11.00000   -1.20000
AFIX   0
C2    1    0.667446    0.456807    0.430632    11.00000    0.09143    0.06720 =
         0.06931    0.00363   -0.01968   -0.02704
AFIX  23
H2A   2    0.732557    0.444695    0.355580    11.00000   -1.20000
H2B   2    0.606040    0.452226    0.334801    11.00000   -1.20000
AFIX   0
C3    1    0.739608    0.428185    0.784930    11.00000    0.08292    0.05157 =
         0.06384    0.01330    0.00021   -0.00959
AFIX  23
H3A   2    0.722758    0.406360    0.912229    11.00000   -1.20000
H3B   2    0.807823    0.413969    0.727720    11.00000   -1.20000
AFIX   0
C10   1    1.027616    0.625907    0.199464    11.00000    0.05661    0.06658 =
         0.06497   -0.00753    0.02174    0.00851
AFIX  23
H10A  2    1.089597    0.610140    0.123717    11.00000   -1.20000
H10B  2    0.975927    0.639960    0.094888    11.00000   -1.20000
AFIX   0
HKLF    4




REM  22MCD035 in P2(1)2(1)2
REM wR2 = 0.1062, GooF = S = 1.055, Restrained GooF = 1.055 for all data
REM R1 = 0.0415 for 2721 Fo > 4sig(Fo) and 0.0606 for all 3442 data
REM 214 parameters refined using 0 restraints

END

WGHT      0.0593      0.1254

REM Highest difference peak  0.168,  deepest hole -0.166,  1-sigma level  0.032
Q1    1   0.7508  0.4949  0.4109  11.00000  0.05    0.17
Q2    1   0.8203  0.4667  0.7410  11.00000  0.05    0.14
Q3    1   0.8290  0.5032  0.5556  11.00000  0.05    0.13
Q4    1   0.6668  0.4568  0.8231  11.00000  0.05    0.12
Q5    1   0.8952  0.7511  0.5480  11.00000  0.05    0.11
Q6    1   0.6801  0.6767  1.2115  11.00000  0.05    0.11
Q7    1   0.8227  0.6832  0.5379  11.00000  0.05    0.11
Q8    1   1.0941  0.5073  0.4970  11.00000  0.05    0.10
Q9    1   0.7642  0.6256  0.7156  11.00000  0.05    0.10
Q10   1   0.8619  0.7660  1.2690  11.00000  0.05    0.09
Q11   1   0.6253  0.6953  0.9288  11.00000  0.05    0.09
Q12   1   0.6381  0.4454  0.2590  11.00000  0.05    0.09
Q13   1   0.8856  0.7957  0.4095  11.00000  0.05    0.09
Q14   1   0.8246  0.7188  0.6277  11.00000  0.05    0.09
Q15   1   0.6093  0.4879  0.9130  11.00000  0.05    0.09
Q16   1   1.0000  0.5000  0.0581  10.50000  0.05    0.09
Q17   1   1.0605  0.7561  0.2694  11.00000  0.05    0.09
Q18   1   0.8682  0.6711  0.6522  11.00000  0.05    0.09
Q19   1   0.9554  0.5023  0.3837  11.00000  0.05    0.09
Q20   1   1.0974  0.8133  0.5745  11.00000  0.05    0.09
;
_shelx_res_checksum   77872

_shelx_hkl_file
;
   0   0  -2  339.61    8.85
   0   0  -2  338.18    8.93
   0   0  -3    2.99    0.46
   0   0  -3    2.33    0.43
   0   0  -3    2.94    0.56
   0   0  -4   80.12    2.78
   0   0  -4   80.70    2.92
   0   0  -4   77.02    2.99
   0   0  -4   84.05    2.72
   0   0  -5   17.11    1.47
   0   0  -5   16.79    1.22
   0   0  -5   15.14    1.36
   0   0  -6    1.58    1.25
   0   0  -6    2.41    0.89
   0   0  -6    3.23    0.74
   0   0  -6    2.91    0.96
   0   0  -7    9.04    1.35
   0   0  -7   11.02    0.96
   0   0  -7   11.08    1.65
  -1   0   0    0.13    0.11
   1   0   0    0.09    0.11
   1   0   0    0.06    0.10
  -1   0   0   -0.11    0.07
  -1   0  -1  263.91    6.84
  -1   0  -1  252.06    6.77
   1   0  -2    3.19    0.27
   1   0   2    3.50    0.28
   1   0   2    3.69    0.34
  -1   0  -2    3.18    0.44
   1   0  -2    2.56    0.16
  -1   0  -2    3.59    0.53
  -1   0  -3    2.09    0.57
   1   0  -3    2.62    0.38
  -1   0  -3    1.68    0.50
   1   0  -3    2.58    0.45
  -1   0  -3    2.86    0.52
  -1   0  -3    3.24    0.77
   1   0  -4    1.73    0.64
  -1   0  -4    1.46    0.82
  -1   0  -4    0.44    0.62
  -1   0  -4    1.69    0.55
   1   0  -4    0.95    0.42
  -1   0  -4    1.94    0.66
   1   0  -4    1.61    0.51
  -1   0  -5    3.11    0.71
  -1   0  -5    4.09    1.04
   1   0  -5    3.69    0.95
  -1   0  -5    3.94    0.87
  -1   0  -5    4.50    0.92
   1   0  -5    4.36    1.06
   1   0  -5    3.42    0.90
   1   0  -6    0.15    1.30
  -1   0  -6   -0.01    0.62
  -1   0  -6    0.59    1.25
  -1   0  -6    0.40    0.68
   1   0  -6    0.04    0.58
   1   0  -6   -0.96    0.77
   1   0  -6    0.26    0.87
  -1   0  -6    0.86    0.89
  -1   0  -7    0.86    0.55
  -1   0  -7    1.67    0.91
  -1   0  -7   -0.34    0.55
   1   0  -7    1.62    0.75
   1   0  -7    0.57    0.79
  -2   0  -1   37.72    1.39
  -2   0  -1   39.31    1.47
   2   0   1   38.62    1.40
  -2   0  -1   37.35    1.33
   2   0   2  162.97    4.52
  -2   0  -2  156.81    4.65
  -2   0  -2  158.68    4.55
  -2   0  -2  156.97    4.58
  -2   0  -3    3.43    0.67
   2   0  -3    3.23    0.29
  -2   0  -3    3.24    0.73
  -2   0  -3    2.82    0.70
   2   0  -3    3.46    0.38
  -2   0  -3    3.90    0.60
  -2   0  -4  111.86    3.54
   2   0  -4  109.04    3.21
   2   0  -4  106.53    4.00
  -2   0  -4  104.20    3.68
  -2   0  -4  111.77    3.92
  -2   0  -4  106.02    3.60
  -2   0  -4   99.54    3.94
   2   0  -4   99.09    3.05
  -2   0  -5    1.38    0.86
   2   0  -5    0.84    0.81
   2   0  -5    1.08    0.55
  -2   0  -5    0.80    0.57
  -2   0  -5    1.04    0.74
  -2   0  -5    0.85    0.69
   2   0  -6    1.36    0.83
   2   0  -6    0.77    1.00
  -2   0  -6    1.17    1.01
   2   0  -6   -0.43    0.59
  -2   0  -6    0.41    0.65
  -2   0  -6    0.63    0.69
  -2   0  -6   -1.26    1.21
   2   0  -7   -0.08    0.84
  -2   0  -7   -0.10    0.85
  -2   0  -7   -0.42    0.54
  -3   0   0   -0.07    0.21
  -3   0   0    0.19    0.26
   3   0  -1  219.85    5.38
  -3   0  -1  204.13    5.82
   3   0   1  202.54    5.84
  -3   0  -1  200.80    5.70
  -3   0  -1  208.24    5.74
   3   0  -1  210.35    5.46
  -3   0  -2   98.56    3.01
  -3   0  -2   99.58    3.38
   3   0   2   96.58    3.14
  -3   0  -2   98.01    3.12
  -3   0  -3   37.13    1.88
   3   0   3   39.50    1.50
   3   0  -3   38.75    1.11
  -3   0  -3   37.54    1.63
  -3   0  -3   40.14    1.82
  -3   0  -3   37.65    1.83
  -3   0  -3   37.36    1.73
  -3   0  -4    1.07    0.76
   3   0  -4    2.18    0.44
  -3   0  -4    2.04    0.67
  -3   0  -4    0.75    0.85
   3   0  -4    2.12    0.40
  -3   0  -4    1.70    0.59
  -3   0  -4    2.11    0.72
  -3   0  -5   52.68    3.61
  -3   0  -5   49.60    2.36
  -3   0  -5   47.38    2.26
   3   0  -5   46.50    1.85
   3   0  -6   12.69    1.19
  -3   0  -6   10.58    1.20
  -3   0  -6   12.36    1.68
  -3   0  -6   13.82    1.45
  -3   0  -7    6.91    1.06
  -3   0  -7   10.29    1.03
   4   0   0   53.59    1.95
  -4   0   0   53.88    1.76
  -4   0   0   54.55    1.63
  -4   0   0   51.48    1.68
   4   0   0   55.29    1.67
   4   0  -1  704.92   17.90
  -4   0  -1  711.09   18.29
   4   0  -1  657.87   17.99
  -4   0  -1  692.04   18.11
   4   0   1  696.98   18.12
  -4   0  -1  716.28   18.18
   4   0   1  679.59   18.32
   4   0   2  130.59    3.85
   4   0   2  132.38    4.22
  -4   0  -2  129.06    4.26
  -4   0  -2  130.19    4.10
   4   0  -2  141.89    3.69
  -4   0  -3   21.68    1.39
   4   0   3   23.01    1.29
  -4   0  -3   20.82    1.28
  -4   0  -3   20.78    1.49
  -4   0  -3   22.14    1.41
  -4   0  -3   21.42    1.21
  -4   0  -4    2.35    0.81
   4   0  -4    2.38    0.35
  -4   0  -4    4.33    1.04
  -4   0  -4    1.88    0.90
   4   0  -4    2.95    0.36
  -4   0  -4    2.62    0.74
  -4   0  -4    2.25    0.61
  -4   0  -5    3.92    1.40
  -4   0  -5    4.29    1.15
  -4   0  -5    3.35    0.85
  -4   0  -5    4.83    0.89
  -4   0  -5    4.22    1.37
   4   0  -5    4.61    0.56
  -4   0  -6    2.31    0.72
  -4   0  -6    1.28    0.91
  -4   0  -6    2.41    0.71
  -4   0  -7    1.23    0.81
  -4   0  -7   -0.17    0.49
  -4   0  -7    0.15    0.63
  -5   0   0   -0.59    0.34
   5   0   0    0.12    0.28
  -5   0   0   -0.01    0.28
   5   0   0    0.52    0.54
   5   0  -1    7.33    0.47
  -5   0  -1    7.94    0.72
   5   0  -1    7.49    0.75
   5   0   1    9.56    1.06
   5   0   1    8.14    0.65
  -5   0  -1    9.18    0.96
  -5   0  -1    8.30    0.82
   5   0  -2   19.89    0.82
  -5   0  -2   18.33    1.10
  -5   0  -2   18.82    1.31
   5   0   2   18.25    1.01
   5   0   2   18.09    1.32
   5   0  -2   18.66    1.01
  -5   0  -2   17.87    1.24
  -5   0  -2   18.05    1.14
  -5   0  -3   34.61    2.57
   5   0   3   31.86    1.77
   5   0  -3   33.49    1.14
  -5   0  -3   35.30    1.66
  -5   0  -3   33.12    1.59
  -5   0  -3   32.44    1.85
  -5   0  -3   31.05    1.95
  -5   0  -3   34.76    1.80
   5   0  -3   34.91    1.01
  -5   0  -4    3.01    1.13
  -5   0  -4    1.64    0.90
  -5   0  -4    3.24    0.93
  -5   0  -4    2.85    0.71
  -5   0  -5    1.71    0.68
  -5   0  -5    2.29    1.38
  -5   0  -5    1.99    0.75
  -5   0  -5    2.00    1.01
  -5   0  -5    1.54    1.26
  -5   0  -5    2.32    1.24
  -5   0  -6    4.45    1.11
  -5   0  -6    4.63    0.81
  -5   0  -7    0.39    0.60
  -5   0  -7    0.92    0.49
   6   0   0  114.72    3.34
  -6   0   0  109.21    3.10
  -6   0   0  115.31    3.08
   6   0   0  109.83    3.82
   6   0  -1  350.39    9.33
  -6   0  -1  345.19    9.94
  -6   0  -1  357.86    9.88
   6   0   1  349.76   10.07
  -6   0  -1  353.18    9.60
   6   0   1  358.86    9.55
   6   0   2   53.48    2.02
  -6   0  -2   57.56    2.59
   6   0  -2   52.24    2.03
   6   0   2   48.98    2.31
  -6   0  -2   53.44    2.28
  -6   0  -2   56.05    2.09
  -6   0  -2   55.44    2.49
  -6   0  -2   53.17    2.21
  -6   0  -2   55.50    2.36
   6   0   2   55.91    2.53
  -6   0  -2   55.81    1.98
  -6   0  -3    0.46    0.49
   6   0  -3    1.09    0.54
  -6   0  -3    3.20    1.35
  -6   0  -3    1.10    0.56
  -6   0  -3    1.19    0.68
  -6   0  -3    2.04    0.75
   6   0   3    1.61    0.74
  -6   0  -3    0.70    0.78
  -6   0  -3    1.39    0.85
   6   0   4    9.92    0.94
  -6   0  -4    9.50    1.06
  -6   0  -4   10.68    2.33
  -6   0  -4    8.10    1.05
  -6   0  -4   10.32    1.70
  -6   0  -4   10.45    1.53
  -6   0  -5    0.64    0.67
  -6   0  -5    0.32    0.81
  -6   0  -5   -0.75    1.16
  -6   0  -5    1.58    1.58
  -6   0  -5    1.50    0.73
  -6   0  -5   -1.61    1.33
  -6   0  -6    1.70    0.84
  -6   0  -6    1.64    0.62
  -6   0  -6    0.71    0.80
  -6   0  -7    0.90    0.91
  -6   0  -7    0.82    0.64
   7   0   0    0.29    0.74
   7   0   0    0.13    0.35
  -7   0   0    0.45    0.60
  -7   0   0   -0.12    0.75
  -7   0  -1    0.08    0.39
  -7   0   1    0.74    0.48
   7   0   1    0.19    0.67
  -7   0  -1   -0.29    0.64
  -7   0  -1    0.39    0.68
  -7   0  -1   -0.90    0.60
   7   0   1    0.20    0.37
   7   0  -1    0.11    0.31
  -7   0  -2    3.65    0.78
   7   0   2    4.00    0.66
  -7   0  -2    4.05    0.72
   7   0  -2    3.95    0.51
  -7   0  -2    4.44    1.19
  -7   0  -2    3.78    1.05
   7   0   2    3.94    0.67
  -7   0  -2    3.93    0.90
  -7   0  -2    3.72    0.92
   7   0   2    4.02    0.97
  -7   0  -3   52.48    2.56
  -7   0  -3   52.15    2.87
   7   0   3   49.72    2.60
  -7   0  -3   52.27    2.06
  -7   0  -3   53.89    2.19
  -7   0  -3   49.73    2.89
  -7   0  -4   42.52    2.46
  -7   0  -4   43.89    1.95
  -7   0  -4   43.07    2.32
   7   0   4   42.93    1.95
  -7   0  -4   41.27    2.96
  -7   0  -4   38.64    2.98
  -7   0  -4   38.18    2.39
  -7   0  -4   39.62    3.10
  -7   0  -5    1.20    1.19
  -7   0  -5    0.66    0.58
  -7   0  -5    0.93    0.78
  -7   0  -6    2.01    0.66
  -7   0  -6    2.64    0.80
  -7   0  -6    3.83    1.17
   8   0   0    6.66    1.43
  -8   0   0    3.90    0.83
   8   0   0    3.26    0.56
  -8   0   0    5.85    1.00
   8   0   1   30.06    2.07
   8   0   1   31.97    1.53
  -8   0  -1   31.44    1.86
  -8   0  -1   34.71    1.44
  -8   0   1   30.72    1.31
   8   0  -1   30.00    1.38
  -8   0  -1   32.37    1.76
   8   0   2    0.00    0.80
   8   0   2   -0.26    0.48
  -8   0  -2   -0.38    0.80
  -8   0  -2   -0.83    1.07
   8   0   2   -0.26    0.51
  -8   0  -2   -0.33    0.46
   8   0  -2   -0.15    0.36
  -8   0  -3   27.94    1.54
  -8   0  -3   31.19    2.34
  -8   0  -3   29.62    1.97
  -8   0  -3   31.33    2.72
   8   0   3   30.80    2.13
   8   0  -3   32.04    1.34
  -8   0  -3   32.82    1.92
  -8   0  -4    1.76    1.50
  -8   0  -4    1.24    1.88
  -8   0  -4    0.71    1.06
   8   0   4    1.21    0.88
  -8   0  -4    0.48    0.66
  -8   0  -4   -0.49    0.98
  -8   0  -4    0.57    0.78
  -8   0  -5    1.14    1.09
  -8   0  -5    1.13    1.90
  -8   0  -5    0.67    0.66
  -8   0  -5    0.69    1.03
  -8   0  -6   -0.99    0.87
  -8   0  -6    0.25    0.76
  -8   0  -6    0.45    0.85
   9   0   0    0.54    1.24
  -9   0   0    1.54    0.75
   9   0   0   -0.37    0.35
  -9   0   0   -0.56    0.88
   9   0   1    5.32    0.84
  -9   0  -1    4.82    1.58
  -9   0  -1    6.16    1.19
   9   0   1    5.22    0.82
   9   0   1    6.19    1.44
  -9   0  -1    5.02    0.50
   9   0  -1    5.28    0.74
  -9   0   1    5.58    0.57
  -9   0  -2    7.28    0.93
   9   0   2    9.20    1.63
  -9   0  -2    9.70    1.44
   9   0   2    8.77    1.00
  -9   0  -2   11.43    1.39
   9   0  -2   10.78    0.91
   9   0   2   12.67    1.29
  -9   0  -3   12.14    1.37
  -9   0  -3   10.18    1.39
   9   0   3   11.45    1.70
   9   0  -3   10.20    0.94
  -9   0  -3   10.74    1.71
  -9   0  -4    3.37    0.96
  -9   0  -4    3.65    1.50
   9   0   4    3.35    1.02
  -9   0  -4    3.25    0.99
  -9   0  -5    2.82    1.17
  -9   0  -5    2.26    1.71
  -9   0  -5    1.09    0.84
  -9   0  -6   -0.59    0.60
 -10   0   0  122.30    4.60
 -10   0   0  106.61    4.11
  10   0   0  113.83    3.88
  10   0   1   -1.20    1.05
  10   0   1   -0.21    0.82
 -10   0  -1   -0.79    0.80
  10   0   1   -0.45    0.50
 -10   0  -1   -0.77    0.73
  10   0  -1   -0.41    0.41
  10   0   2    8.86    1.75
  10   0  -2    7.39    0.86
  10   0   2    5.39    1.07
  10   0   2    7.26    1.04
 -10   0  -2    6.58    1.22
 -10   0  -2    8.40    1.55
 -10   0  -2    8.00    0.88
 -10   0  -3    2.64    0.96
  10   0   3    1.83    1.14
  10   0  -3    2.91    0.70
 -10   0  -3    1.34    1.34
 -10   0  -3    1.22    1.08
  10   0  -4   11.03    1.08
 -10   0  -4    7.37    1.17
  10   0   4    6.13    1.81
 -10   0  -4    8.49    1.79
 -10   0  -5    3.97    1.43
 -10   0  -5    2.66    0.77
  11   0   0    0.03    0.52
 -11   0   0    0.38    0.85
  11   0   0    0.36    1.96
  11   0   0   -0.83    0.54
  11   0   1    0.87    0.76
 -11   0  -1   -0.38    0.82
 -11   0  -1   -1.61    1.00
  11   0  -1    0.78    0.67
  11   0   1    1.18    1.43
  11   0   1    0.20    0.64
  11   0   2   18.64    3.60
 -11   0  -2   19.70    2.04
  11   0   2   18.96    1.50
  11   0  -2   19.30    1.37
 -11   0  -3    1.25    0.98
 -11   0  -3    3.97    1.36
  11   0   3    1.63    1.13
  11   0  -3    2.88    0.78
 -11   0  -3    2.83    0.89
  11   0  -4    3.41    0.98
 -11   0  -4    2.45    0.88
 -11   0  -4    4.74    1.30
 -11   0  -5    1.98    0.75
 -11   0  -5    3.21    1.41
  12   0   0    1.52    0.74
  12   0   0    1.23    0.71
  12   0   0   -0.55    2.67
  12   0   1    6.38    1.02
  12   0  -1   10.19    1.19
  12   0  -1    9.09    1.18
  12   0   1    6.16    1.08
  12   0   1    5.94    2.17
 -12   0  -1    9.40    1.27
  12   0   2   -1.92    1.33
  12   0  -2   -0.23    0.56
  12   0   2   -0.34    0.86
 -12   0  -2   -0.53    0.95
  12   0   2    0.14    1.33
 -12   0  -2   -0.93    0.99
  12   0  -2    0.08    0.90
 -12   0  -3   -1.63    0.93
 -12   0  -3   -1.18    0.82
  12   0  -3   -1.69    0.67
  12   0  -3   -1.74    0.79
 -12   0  -4    5.08    0.89
  13   0   0    0.08    1.19
  13   0   0   -1.36    0.58
  13   0  -1    0.23    0.68
  13   0   1    0.31    0.66
 -13   0  -1    0.20    0.68
  13   0  -1   -0.44    0.59
  13   0   1   -1.20    0.87
  13   0  -2    4.61    0.86
  13   0  -2    4.32    0.88
 -13   0  -2    3.76    0.94
  13   0   2    4.37    1.05
  13   0  -3    2.95    0.82
 -13   0  -3    1.48    0.84
  14   0   0    6.11    1.12
  14   0   0    5.99    0.87
  14   0  -1   -0.59    0.96
  14   0  -1    0.34    0.83
  14   0   1   -0.05    0.64
  14   0  -2    3.56    0.74
  15   0   0   -0.21    0.59
   0   1   0   -0.06    0.05
   0   1   0    0.02    0.06
   0   1  -1  223.32    5.75
   0  -1  -1  219.68    5.71
   0  -1  -1  218.80    5.76
   0  -1  -1  224.86    5.72
   0   1  -1  218.26    5.71
   0  -1  -2    0.73    0.26
   0  -1  -2    0.50    0.31
   0   1  -2    0.52    0.29
   0   1  -2    0.61    0.24
   0   1  -3    1.02    0.48
   0  -1  -3    0.87    0.39
   0   1  -3    1.79    0.39
   0   1  -3    0.88    0.36
   0  -1  -3    0.84    0.44
   0  -1  -3    1.71    0.38
   0  -1  -4    0.54    0.82
   0   1  -4    1.25    0.50
   0  -1  -4    1.01    0.54
   0   1  -4    0.14    0.81
   0   1  -4    1.14    0.50
   0   1  -4    1.27    0.57
   0  -1  -4    0.95    0.44
   0  -1  -4    1.99    0.55
   0  -1  -5   30.84    1.83
   0   1  -5   29.19    1.72
   0  -1  -5   28.57    1.67
   0   1  -5   23.05    1.66
   0   1  -5   29.15    1.53
   0  -1  -5   26.72    1.54
   0  -1  -6    6.77    0.91
   0  -1  -6    7.40    1.12
   0   1  -6    6.93    1.50
   0   1  -6    5.44    0.83
   0  -1  -6    6.52    1.47
   0   1  -6    4.08    1.09
   0  -1  -6    6.72    1.17
   0   1  -6    6.02    1.03
   0   1  -7    2.46    1.11
   0  -1  -7    3.87    1.33
   0  -1  -7    1.31    1.00
   0   1  -7    0.83    1.17
   0  -1  -7    2.18    0.66
  -1   1   0   30.99    0.90
  -1   1   0   30.82    0.93
  -1  -1   0   30.90    0.89
  -1  -1   0   31.81    0.92
   1   1   0   29.60    0.90
   1  -1   0   31.85    0.92
   1  -1   1  292.45    7.76
  -1  -1  -1  289.68    7.72
  -1  -1  -1  303.22    7.79
  -1   1  -1  297.96    7.65
  -1   1  -1  289.24    7.71
   1   1   1  289.47    7.69
   1   1  -2  582.26   15.44
  -1  -1  -2  635.22   15.77
   1  -1   2  592.68   15.51
  -1  -1  -2  609.83   15.85
   1   1  -2  608.82   15.52
   1  -1  -2  610.69   15.79
   1   1   2  614.36   15.84
  -1   1  -2  613.88   16.19
   1  -1  -2  626.79   15.88
  -1   1  -2  610.54   16.10
   1  -1  -2  629.16   15.79
   1   1   2  628.97   15.87
  -1  -1  -3   11.84    1.09
  -1  -1  -3   10.48    0.77
  -1  -1  -3   11.16    0.84
  -1  -1  -3   12.26    0.93
   1   1  -3   10.37    0.73
   1   1  -3   10.27    0.61
   1  -1  -3   10.07    0.62
  -1   1  -3   14.37    1.24
  -1   1  -3   11.07    0.85
  -1   1  -3   10.29    0.90
   1  -1  -3   10.90    0.73
  -1   1  -3   10.94    0.78
  -1  -1  -4   12.44    1.04
  -1  -1  -4   13.00    0.99
   1   1  -4   12.96    0.87
   1   1  -4   12.96    0.85
  -1  -1  -4   14.01    1.20
   1   1  -4   12.64    1.00
   1  -1  -4   13.87    1.00
  -1   1  -4   12.61    1.13
  -1   1  -4   15.38    1.96
  -1   1  -4   10.87    1.11
   1  -1  -4   13.67    0.89
  -1   1  -4   13.07    0.98
   1  -1  -4   12.08    0.86
   1   1  -5    1.64    0.65
  -1  -1  -5    3.88    0.87
  -1  -1  -5    2.60    0.67
  -1  -1  -5    2.98    0.94
  -1  -1  -5    2.68    0.79
   1   1  -5    3.09    1.13
   1   1  -5    2.08    0.67
   1  -1  -5    1.85    0.71
  -1   1  -5    2.98    0.92
   1  -1  -5    4.42    1.23
   1  -1  -5    1.79    0.67
  -1   1  -5    3.32    0.84
  -1   1  -5    3.61    0.86
  -1   1  -5    2.95    0.69
   1   1  -6   10.32    1.72
  -1  -1  -6    8.79    1.19
  -1  -1  -6    9.41    1.37
   1   1  -6    8.60    1.20
   1   1  -6   11.51    1.32
  -1  -1  -6    8.27    1.07
   1   1  -6    9.33    1.03
  -1  -1  -6   11.17    1.78
   1  -1  -6   10.68    1.56
   1  -1  -6    9.39    1.28
   1  -1  -6    9.93    1.30
  -1   1  -6    9.60    1.14
   1  -1  -6   10.45    1.13
  -1   1  -6    9.50    1.69
  -1   1  -6   13.27    1.43
  -1   1  -6    9.77    1.41
  -1  -1  -7    0.62    0.91
   1   1  -7    1.62    0.76
  -1  -1  -7    0.88    0.64
  -1  -1  -7    1.12    0.63
   1  -1  -7    0.24    1.17
  -1   1  -7    1.72    0.65
  -1   1  -7    0.32    0.92
   1  -1  -7    1.25    0.77
  -2   1   0    0.59    0.20
  -2  -1   0    0.46    0.18
  -2   1   0    0.71    0.21
  -2  -1   0    0.48    0.18
  -2  -1  -2    2.29    0.49
   2  -1   2    2.93    0.52
  -2  -1  -2    2.32    0.56
  -2  -1  -2    2.93    0.51
  -2  -1  -2    2.35    0.53
  -2   1  -2    2.61    0.58
   2   1   2    2.97    0.50
  -2   1  -2    2.49    0.50
  -2   1  -2    3.25    0.55
  -2   1  -2    3.07    0.48
  -2  -1  -3    3.32    0.61
   2   1  -3    2.89    0.29
  -2  -1  -3    4.15    0.77
  -2  -1  -3    2.83    0.64
  -2  -1  -3    2.43    0.69
  -2   1  -3    3.06    0.64
   2  -1  -3    2.73    0.29
  -2   1  -3    1.82    0.65
  -2   1  -3    3.07    0.77
   2  -1  -3    3.50    0.48
  -2   1  -3    3.60    0.57
   2   1  -4    4.16    0.58
  -2  -1  -4    5.29    1.00
  -2  -1  -4    4.12    0.74
  -2  -1  -4    3.79    0.79
  -2  -1  -4    3.28    0.72
  -2  -1  -4    4.90    1.17
   2   1  -4    3.63    0.53
  -2   1  -4    4.25    0.79
  -2   1  -4    4.36    0.84
  -2   1  -4    3.98    0.90
   2  -1  -4    4.76    0.58
  -2   1  -4    5.39    1.19
  -2   1  -4    5.00    0.77
   2  -1  -4    4.83    0.57
  -2  -1  -5   14.39    1.51
  -2  -1  -5   16.60    1.39
   2   1  -5   17.40    1.17
  -2  -1  -5   19.64    1.97
  -2  -1  -5   15.61    1.27
   2  -1  -5   15.51    1.14
  -2   1  -5   16.81    1.26
  -2   1  -5   16.35    1.58
  -2   1  -5   15.79    1.37
  -2   1  -5   13.84    1.60
   2   1  -6   22.49    1.77
  -2  -1  -6   23.54    1.65
  -2  -1  -6   24.89    2.20
   2   1  -6   17.72    1.61
  -2  -1  -6   21.54    1.50
  -2  -1  -6   18.70    2.15
   2   1  -6   21.24    1.35
  -2   1  -6   19.19    2.18
   2  -1  -6   20.72    1.35
  -2   1  -6   20.71    1.41
  -2   1  -6   19.68    1.77
  -2   1  -6   18.63    1.89
   2  -1  -6   22.60    1.94
   2  -1  -6   20.92    1.81
  -2   1  -6   20.41    1.53
  -2  -1  -7    5.03    0.83
  -2  -1  -7    4.57    0.76
  -2  -1  -7    6.83    1.83
   2   1  -7    3.90    0.94
   2  -1  -7    6.41    1.04
  -2   1  -7    4.81    1.06
  -2   1  -7    5.13    0.82
  -3  -1   0  396.89   10.79
  -3   1   0  415.84   10.82
  -3  -1   0  408.41   10.72
  -3   1   0  435.60   10.74
   3   1  -1  415.71   10.44
   3  -1   1  392.03   10.86
   3   1  -1  429.65   10.52
  -3  -1  -1  390.47   10.75
  -3  -1  -1  405.43   10.85
  -3  -1  -1  401.47   10.74
  -3   1  -1  394.49   10.68
  -3   1  -1  397.80   10.60
   3   1   1  403.86   10.74
   3  -1  -1  394.09   10.34
   3  -1  -1  423.78   10.26
  -3   1  -1  381.49   10.56
  -3  -1  -2   31.16    1.29
  -3  -1  -2   29.04    1.36
  -3  -1  -2   29.94    1.34
   3  -1   2   30.82    1.43
   3   1   2   29.90    1.39
  -3   1  -2   30.26    1.41
  -3   1  -2   29.49    1.35
  -3   1  -2   28.50    1.21
   3  -1   3   59.12    2.00
  -3  -1  -3   59.29    2.33
  -3  -1  -3   58.58    2.47
  -3  -1  -3   59.64    2.18
  -3  -1  -3   57.58    2.22
  -3  -1  -3   55.68    2.33
  -3   1  -3   55.20    2.27
  -3   1  -3   52.95    2.32
   3  -1  -3   54.49    1.57
   3   1   3   56.76    1.92
  -3   1  -3   58.84    2.29
  -3   1  -3   58.67    2.09
  -3   1  -3   55.06    2.14
  -3  -1  -4    1.25    0.68
  -3  -1  -4    0.22    0.64
  -3  -1  -4    0.87    0.55
  -3  -1  -4    0.59    0.59
  -3  -1  -4    0.75    0.84
   3   1  -4    0.85    0.30
   3   1  -4    0.66    0.44
  -3   1  -4    0.92    0.60
  -3   1  -4   -0.60    0.58
   3  -1  -4    0.26    0.32
   3  -1  -4    1.27    0.41
  -3   1  -4    0.90    0.82
  -3   1  -4    0.23    0.55
  -3   1  -4    1.14    0.55
  -3  -1  -5    0.31    0.81
  -3  -1  -5    1.55    1.11
  -3  -1  -5    0.17    0.62
  -3  -1  -5    0.64    0.67
   3   1  -5   -0.29    0.49
   3  -1  -5    0.23    0.45
  -3   1  -5    1.17    0.66
  -3   1  -5    1.07    1.00
  -3   1  -5   -0.81    1.02
  -3   1  -5    0.40    0.60
  -3  -1  -6    3.14    0.84
  -3  -1  -6    3.80    0.92
   3   1  -6    3.36    0.82
  -3   1  -6    2.06    1.07
   3  -1  -6    4.11    0.89
  -3   1  -6    3.44    0.85
  -3   1  -6    4.02    0.88
  -3  -1  -7    1.61    0.63
  -3  -1  -7    3.50    0.94
  -3   1  -7    3.48    0.97
  -3   1  -7    3.30    0.86
  -3   1  -7    2.58    0.66
  -4   1   0    0.31    0.34
  -4   1   0    0.12    0.23
   4  -1   0    0.19    0.24
  -4   1   0   -0.23    0.27
   4   1   0    0.15    0.25
   4   1   0    0.33    0.42
  -4  -1   0    0.18    0.22
  -4  -1   0    0.18    0.30
   4   1  -1   38.25    1.45
  -4  -1  -1   39.90    1.54
   4   1  -1   40.85    1.33
  -4  -1  -1   40.92    1.51
  -4  -1  -1   37.39    1.60
   4  -1   1   40.09    1.70
   4  -1   1   40.46    1.41
   4   1   1   37.21    1.66
   4  -1  -1   37.93    1.29
  -4   1  -1   40.50    1.66
  -4   1  -1   39.73    1.52
   4   1   1   39.38    1.37
  -4   1  -1   37.49    1.47
   4  -1  -1   37.13    1.41
   4  -1   2   74.00    2.65
   4  -1   2   68.11    2.27
  -4  -1  -2   68.41    2.48
   4   1  -2   72.70    2.02
  -4  -1  -2   71.71    2.83
  -4  -1  -2   71.21    2.68
   4  -1  -2   71.41    2.00
  -4   1  -2   72.79    2.55
  -4   1  -2   69.81    2.68
   4   1   2   70.89    2.62
   4   1   2   70.03    2.28
  -4  -1  -3  172.83    5.16
  -4  -1  -3  170.38    5.38
  -4  -1  -3  169.81    5.39
  -4  -1  -3  173.94    5.24
   4  -1   3  176.24    5.22
  -4  -1  -3  174.36    5.61
  -4   1  -3  181.43    5.39
  -4   1  -3  174.34    5.53
  -4   1  -3  178.37    5.76
  -4   1  -3  173.36    5.54
   4   1   3  182.17    5.32
  -4   1  -3  179.80    5.30
  -4  -1  -4    4.76    1.01
   4   1  -4    4.64    0.49
  -4  -1  -4    4.23    1.09
  -4  -1  -4    4.57    1.11
  -4  -1  -4    3.74    0.71
  -4  -1  -4    4.18    0.85
  -4   1  -4    4.03    0.81
  -4   1  -4    5.75    1.21
  -4   1  -4    3.29    1.02
  -4   1  -4    4.00    0.71
   4  -1  -4    4.51    0.41
   4  -1  -4    4.43    0.60
  -4   1  -4    3.65    0.92
   4   1  -5   20.51    1.04
  -4  -1  -5   20.51    1.58
  -4  -1  -5   23.43    2.47
  -4  -1  -5   21.65    1.51
  -4  -1  -5   24.67    2.19
  -4  -1  -5   26.70    2.58
  -4   1  -5   19.29    1.40
  -4   1  -5   22.08    1.56
  -4   1  -5   23.93    2.47
  -4   1  -5   26.05    2.05
  -4   1  -5   24.80    2.44
   4  -1  -5   19.29    0.93
  -4  -1  -6    8.28    1.03
  -4  -1  -6    7.47    1.31
  -4  -1  -6    6.38    1.00
  -4   1  -6    8.35    1.03
  -4   1  -6   11.05    1.56
  -4   1  -6    7.08    1.03
  -4  -1  -7   14.16    1.29
  -4  -1  -7   13.06    1.12
  -4   1  -7   13.57    1.07
  -4   1  -7   14.16    1.40
  -4   1  -7   15.33    1.33
  -5   1   0   11.50    0.81
   5   1   0   12.52    0.70
  -5   1   0   13.55    0.72
   5  -1   0   12.56    0.69
   5  -1   0   12.42    1.04
   5   1   0   12.98    1.07
  -5  -1   0   11.65    0.77
  -5  -1  -1  109.04    3.48
  -5  -1  -1  113.45    3.44
   5  -1   1  110.19    3.72
   5   1  -1  116.85    3.45
   5  -1   1  115.31    3.51
  -5  -1  -1  113.47    3.64
   5   1  -1  110.51    3.12
   5   1   1  115.39    3.75
   5  -1  -1  105.33    3.06
  -5   1  -1  114.13    3.50
   5   1   1  115.78    3.56
  -5   1  -1  109.24    3.60
  -5   1  -1  110.09    3.40
   5  -1  -1  111.71    3.38
   5   1  -2   36.14    1.24
  -5  -1  -2   34.93    1.61
   5  -1   2   33.32    1.42
   5  -1   2   33.01    1.79
   5   1  -2   33.98    1.41
  -5  -1  -2   36.27    1.84
  -5  -1  -2   34.80    1.68
  -5  -1  -2   34.01    1.69
  -5   1  -2   33.03    1.66
   5  -1  -2   31.26    1.38
  -5   1  -2   36.54    1.69
   5   1   2   36.76    1.45
  -5   1  -2   33.99    1.63
   5   1   2   35.50    1.83
  -5   1  -2   37.06    1.87
   5  -1  -2   36.73    1.25
  -5  -1  -3  115.08    3.79
  -5  -1  -3  117.86    3.87
  -5  -1  -3  112.35    4.24
   5   1  -3  118.02    3.30
   5  -1   3  113.35    3.98
  -5  -1  -3  112.55    4.61
  -5  -1  -3  123.12    4.16
   5   1  -3  122.77    3.25
  -5  -1  -3  113.38    4.01
  -5   1  -3  112.90    3.71
  -5   1  -3  107.33    4.56
  -5   1  -3  116.09    4.07
   5  -1  -3  114.21    3.20
   5  -1  -3  121.08    3.11
  -5   1  -3  112.89    3.78
  -5   1  -3  115.71    4.27
  -5   1  -3  117.88    4.01
   5   1   3  115.07    3.93
  -5  -1  -4   11.77    1.59
  -5  -1  -4   10.41    1.38
  -5  -1  -4    8.09    1.00
  -5  -1  -4   10.13    1.46
   5   1  -4    9.32    0.41
  -5   1  -4    9.25    1.47
  -5   1  -4    7.80    0.96
  -5   1  -4   11.91    1.56
  -5   1  -4   10.43    1.37
  -5  -1  -5    5.95    1.42
  -5  -1  -5    4.47    1.46
  -5  -1  -5    4.29    0.89
  -5  -1  -5    4.38    0.91
  -5  -1  -5    4.32    1.58
  -5   1  -5    7.55    1.55
  -5   1  -5    4.19    0.84
  -5   1  -5    4.92    1.50
  -5   1  -5    7.40    1.67
  -5   1  -5    3.43    0.79
  -5   1  -5    3.79    1.13
  -5  -1  -6    2.07    0.74
  -5  -1  -6    1.83    1.03
  -5   1  -6    2.44    1.12
  -5  -1  -7    2.10    0.68
  -5  -1  -7    4.71    0.71
  -5   1  -7    4.76    0.87
  -5   1  -7    4.20    0.68
   6   1   0  156.07    4.41
  -6  -1   0  149.65    4.17
   6  -1   0  158.17    4.41
   6   1   0  155.33    4.93
  -6   1   0  161.02    4.13
   6  -1   0  152.08    4.88
  -6   1   0  147.71    4.15
   6  -1   1   87.34    2.74
  -6  -1  -1   86.87    3.04
  -6  -1  -1   85.09    2.79
   6   1  -1   85.78    2.55
   6  -1   1   83.19    3.16
  -6  -1  -1   81.21    3.11
  -6  -1  -1   84.10    2.89
  -6   1  -1   82.72    3.10
   6  -1  -1   85.11    2.54
  -6   1  -1   79.65    2.94
  -6   1  -1   85.14    2.98
  -6   1  -1   82.33    3.03
   6   1   1   85.38    3.21
   6   1   1   86.78    2.73
  -6   1  -1   88.00    2.82
  -6  -1  -2   22.94    1.18
  -6  -1  -2   24.05    1.73
   6   1  -2   23.16    1.41
   6  -1   2   24.57    1.65
  -6  -1  -2   25.75    1.31
  -6  -1  -2   23.39    1.50
  -6  -1  -2   23.46    1.44
   6  -1   2   23.40    1.23
  -6  -1  -2   22.30    1.35
   6  -1   2   24.65    1.25
  -6  -1  -2   22.80    1.54
   6   1  -2   22.01    0.89
  -6   1  -2   24.88    1.16
   6   1   2   22.77    1.31
  -6   1  -2   25.55    1.67
  -6   1  -2   25.63    1.29
   6   1   2   24.29    1.27
   6   1   2   25.90    1.70
  -6   1  -2   24.39    1.48
  -6   1  -2   24.03    1.71
   6  -1  -2   21.84    0.91
   6  -1  -2   24.58    1.34
  -6   1  -2   24.57    1.41
  -6   1  -2   24.48    1.71
  -6  -1  -3   19.13    1.68
  -6  -1  -3   20.59    1.23
  -6  -1  -3   21.76    2.02
  -6  -1  -3   20.76    1.57
  -6  -1  -3   19.02    1.27
   6  -1   3   19.91    1.52
  -6  -1  -3   20.43    1.48
   6   1  -3   19.71    1.19
  -6   1  -3   24.25    1.69
  -6   1  -3   22.60    1.67
  -6   1  -3   21.42    1.31
   6   1   3   21.51    1.56
  -6   1  -3   22.85    2.33
  -6   1  -3   19.93    1.20
  -6   1  -3   18.80    1.45
  -6   1  -3   20.72    1.67
  -6  -1  -4    7.50    1.51
  -6  -1  -4    8.61    1.06
  -6  -1  -4    6.17    0.99
  -6  -1  -4    8.36    1.74
   6  -1   4    8.13    0.82
  -6  -1  -4    7.08    1.36
  -6  -1  -4    7.05    2.12
   6   1   4    7.63    0.77
  -6   1  -4    6.29    0.95
  -6   1  -4    8.19    2.36
  -6   1  -4    6.84    0.87
  -6   1  -4   14.22    2.42
  -6   1  -4    8.42    1.33
  -6   1  -4    7.76    1.50
  -6  -1  -5   13.33    1.66
  -6  -1  -5   12.08    1.35
  -6  -1  -5    9.10    1.97
  -6  -1  -5   12.37    1.33
  -6  -1  -5   15.61    1.96
  -6  -1  -5    9.10    1.89
  -6   1  -5   11.13    1.21
  -6   1  -5   12.48    1.85
  -6   1  -5    9.33    1.95
  -6   1  -5   11.43    1.56
  -6   1  -5   12.99    2.18
  -6   1  -5    9.14    1.10
  -6  -1  -6    3.29    0.81
  -6  -1  -6    3.46    1.08
  -6   1  -6    2.69    0.68
  -6   1  -6    4.52    0.96
  -6   1  -6    2.49    0.89
  -6  -1  -7    3.04    0.77
  -6  -1  -7    6.13    0.85
  -6   1  -7    4.66    1.04
  -6   1  -7    3.79    0.74
  -7  -1   0    6.70    0.93
  -7   1   0    9.07    1.08
   7  -1   0    7.33    1.19
   7  -1   0    5.58    0.65
   7   1   0    6.80    1.24
   7   1   0    5.16    0.63
  -7   1   0    7.13    0.99
  -7  -1  -1   67.71    2.34
   7   1  -1   63.54    2.41
  -7  -1  -1   66.75    2.77
   7  -1   1   65.12    2.87
   7  -1   1   67.19    2.34
  -7   1   1   66.26    2.18
  -7  -1  -1   65.59    2.57
   7   1   1   66.40    2.35
   7   1   1   61.62    2.89
  -7   1  -1   67.40    2.64
  -7  -1   1   66.17    2.21
  -7   1  -1   67.68    2.36
  -7   1  -1   65.48    2.78
   7  -1  -1   72.12    2.33
  -7   1  -1   64.48    2.68
  -7  -1  -2   21.62    1.95
   7  -1   2   18.92    1.13
  -7  -1  -2   20.14    1.31
  -7  -1  -2   20.14    1.58
  -7  -1  -2   19.07    1.48
  -7  -1  -2   20.12    1.66
   7   1  -2   18.59    0.92
  -7  -1  -2   19.02    1.19
   7  -1   2   18.51    1.18
   7  -1   2   19.93    1.63
  -7   1  -2   19.73    1.58
  -7   1  -2   19.01    1.40
  -7   1  -2   21.55    1.71
  -7   1  -2   20.73    1.77
   7  -1  -2   19.64    0.93
   7   1   2   18.30    1.13
  -7   1  -2   19.13    1.16
   7   1   2   17.56    1.56
  -7   1  -2   17.24    1.27
   7   1   2   17.80    1.17
  -7  -1  -3   15.22    1.21
   7  -1   3   15.97    1.67
   7   1  -3   14.38    1.02
  -7  -1  -3   16.08    1.49
  -7  -1  -3   21.13    2.44
  -7  -1  -3   14.99    1.80
  -7  -1  -3   16.30    1.10
   7   1   3   15.76    1.70
  -7   1  -3   20.57    2.21
  -7   1  -3   18.92    2.07
  -7   1  -3   14.88    1.47
  -7   1  -3   17.01    1.23
  -7  -1  -4    4.96    1.19
  -7  -1  -4    4.60    1.71
   7  -1   4    5.13    0.87
  -7  -1  -4    5.31    1.18
  -7  -1  -4    4.85    1.47
  -7  -1  -4    5.19    2.17
   7   1  -4    5.05    0.40
  -7  -1  -4    5.92    0.92
  -7  -1  -4    3.68    0.79
   7   1   4    5.33    0.90
  -7   1  -4    6.13    1.26
  -7   1  -4    4.06    1.59
  -7   1  -4    6.44    1.62
  -7   1  -4    5.70    0.93
  -7   1  -4    4.67    1.09
  -7   1  -4    5.25    2.73
  -7  -1  -5    0.23    0.59
  -7  -1  -5    0.78    1.15
  -7  -1  -5   -0.18    0.78
  -7   1  -5   -2.66    0.79
  -7   1  -5    0.24    1.21
  -7   1  -5    0.23    0.55
  -7   1  -5    1.01    0.84
  -7  -1  -6   -0.28    0.60
  -7  -1  -6    1.07    1.52
  -7  -1  -6   -0.07    0.57
  -7   1  -6    0.20    0.73
  -7   1  -6    0.09    1.29
  -7   1  -6    1.41    0.60
  -8   1   0   23.49    1.58
   8   1   0   23.56    1.98
  -8  -1   0   27.58    1.72
  -8  -1   0   25.13    1.53
   8   1   0   24.16    1.26
   8  -1   0   26.17    1.98
  -8   1   0   25.17    1.51
   8  -1   0   25.23    1.28
   8   1  -1   34.36    1.48
  -8  -1  -1   33.46    1.46
  -8   1   1   32.69    1.35
  -8   1   1   34.35    2.00
  -8  -1  -1   32.41    1.83
  -8  -1  -1   34.08    1.98
   8  -1   1   32.04    1.55
   8  -1   1   33.34    2.16
  -8   1  -1   32.47    1.80
  -8   1  -1   34.80    1.94
   8   1   1   34.67    1.60
  -8   1  -1   34.38    1.47
   8  -1  -1   34.43    1.48
   8   1   1   35.12    2.21
  -8  -1   1   34.24    1.40
  -8  -1  -2    2.49    0.93
  -8  -1  -2    2.46    0.96
   8  -1   2    2.92    1.05
   8   1  -2    2.95    0.52
   8  -1   2    2.26    0.72
  -8  -1  -2    1.48    1.11
  -8  -1  -2    2.69    0.74
   8  -1   2    2.81    0.71
   8  -1  -2    2.52    0.48
   8   1   2    3.01    1.03
  -8   1  -2    2.67    1.07
  -8   1  -2    1.18    0.61
   8   1   2    1.77    0.63
  -8   1  -2    3.07    1.23
   8   1   2    2.16    0.70
  -8   1  -2    2.15    0.83
  -8  -1  -3    2.80    1.48
  -8  -1  -3    3.22    1.20
   8  -1   3    3.85    1.08
  -8  -1  -3    3.53    1.03
  -8  -1  -3    3.48    1.43
  -8  -1  -3    2.25    0.69
  -8  -1  -3    2.23    0.76
   8   1  -3    2.62    0.54
   8   1   3    3.20    1.04
  -8   1  -3    2.12    0.75
  -8   1  -3    1.93    1.16
  -8   1  -3    4.67    1.65
  -8   1  -3    3.07    0.86
   8  -1  -3    2.65    0.56
  -8  -1  -4    3.63    1.07
   8  -1   4    2.08    1.15
  -8  -1  -4    3.46    1.70
  -8  -1  -4    1.99    0.77
  -8  -1  -4    0.60    1.90
  -8  -1  -4    1.20    1.38
   8   1  -4    1.56    0.45
  -8  -1  -4    2.30    0.86
  -8   1  -4    1.84    1.48
  -8   1  -4    0.57    1.34
  -8   1  -4    3.77    2.16
  -8   1  -4    1.99    0.72
  -8   1  -4    3.13    1.02
  -8   1  -4    2.26    0.98
   8   1   4    2.15    1.06
  -8  -1  -5    5.39    0.92
  -8  -1  -5    6.81    2.04
  -8  -1  -5    4.03    1.20
  -8  -1  -5    5.17    1.62
  -8  -1  -5    4.13    1.27
  -8   1  -5    6.84    1.97
  -8   1  -5    3.79    1.21
  -8   1  -5    4.14    0.85
  -8   1  -5    3.16    1.16
  -8  -1  -6    2.32    0.78
  -8  -1  -6    5.32    0.83
  -8   1  -6    1.80    0.74
  -8   1  -6    4.19    1.23
  -8   1  -6    3.31    1.19
  -9   1   0   41.89    2.03
   9   1   0   38.86    2.78
  -9  -1   0   39.69    1.98
   9   1   0   40.87    1.83
   9  -1   0   41.78    1.83
  -9  -1   0   40.33    2.28
   9  -1   0   40.69    2.81
   9   1  -1   10.40    0.91
   9  -1   1    9.32    1.03
  -9   1   1   10.42    0.76
  -9  -1  -1   10.43    0.69
   9  -1   1   13.42    1.87
  -9  -1  -1   12.69    1.37
  -9   1   1   12.01    1.54
   9  -1   1   10.62    1.07
  -9  -1  -1   11.18    1.39
  -9   1  -1   10.56    1.43
   9   1   1   12.15    1.78
   9   1   1    9.50    1.07
   9  -1  -1    9.86    0.88
  -9   1  -1    9.94    0.65
  -9  -1   1   10.25    0.76
  -9   1  -1   11.60    1.45
   9  -1   2   46.35    2.08
   9  -1   2   41.88    2.03
   9   1  -2   46.88    1.85
  -9  -1  -2   45.34    2.56
   9  -1   2   43.61    2.79
  -9  -1  -2   42.49    2.01
  -9  -1  -2   43.34    2.25
  -9   1  -2   42.87    2.02
   9   1   2   46.15    2.10
   9   1   2   45.37    2.78
   9  -1  -2   47.71    1.88
  -9   1  -2   43.45    2.58
   9   1   2   45.66    2.08
  -9   1  -2   44.73    2.34
  -9  -1  -3    8.29    1.59
   9  -1   3    7.82    1.48
  -9  -1  -3    8.36    1.13
  -9  -1  -3    8.23    1.25
   9   1  -3   10.12    0.98
  -9   1  -3    6.39    1.11
  -9   1  -3    7.77    1.08
  -9   1  -3    7.84    1.58
   9  -1  -3   10.66    0.94
   9   1   3   10.35    1.60
  -9  -1  -4   14.71    1.57
   9   1  -4   15.39    1.24
  -9  -1  -4   12.51    1.49
   9  -1   4   14.61    1.47
  -9  -1  -4   16.33    2.13
  -9   1  -4   11.11    1.44
  -9   1  -4   14.53    2.07
   9   1   4   12.21    1.34
  -9   1  -4   14.95    1.61
  -9   1  -4   11.67    1.41
  -9  -1  -5    2.53    1.70
  -9  -1  -5    0.10    0.68
  -9   1  -5   -0.48    0.66
  -9   1  -5    1.83    1.19
  -9   1  -5    0.53    1.81
  -9  -1  -6    0.43    0.70
  -9   1  -6    0.06    0.58
 -10  -1   0   38.76    2.60
  10   1   0   31.61    1.71
  10  -1   0   33.06    1.76
 -10   1   0   33.51    2.16
 -10   1   0   34.87    1.96
 -10  -1  -1   24.48    1.80
  10  -1   1   28.19    2.78
  10   1  -1   25.38    1.45
 -10  -1  -1   24.05    1.86
  10  -1   1   23.24    1.54
  10   1   1   26.38    1.63
 -10   1  -1   22.86    1.79
  10   1   1   23.49    2.51
 -10   1  -1   26.74    1.89
  10  -1  -1   23.52    1.40
 -10  -1  -2   28.61    1.92
  10   1  -2   29.84    1.50
 -10  -1  -2   28.77    2.20
 -10  -1  -2   28.36    1.48
  10  -1   2   29.03    1.71
  10  -1   2   29.35    1.81
  10  -1   2   29.73    2.57
  10   1   2   23.40    1.73
 -10   1  -2   27.95    1.88
  10  -1  -2   30.62    1.52
  10   1   2   29.80    1.73
 -10   1  -2   27.13    2.16
  10   1   2   28.64    2.57
 -10   1  -2   29.95    1.46
 -10  -1  -3    6.23    1.46
  10   1  -3    4.93    0.81
  10  -1   3    2.09    1.27
 -10  -1  -3    4.75    1.11
 -10  -1  -3    7.66    1.56
  10   1   3    4.99    1.41
 -10   1  -3    5.15    1.49
 -10   1  -3    2.63    0.95
 -10   1  -3    4.98    1.33
  10  -1  -3    6.21    0.87
  10   1  -4    6.62    0.93
 -10  -1  -4    7.03    1.22
 -10  -1  -4    5.74    1.49
 -10  -1  -4    7.75    1.70
 -10   1  -4    4.46    1.03
 -10   1  -4    2.87    1.48
 -10   1  -4    4.99    1.50
  10  -1  -4    5.69    0.95
 -10  -1  -5    7.61    1.62
 -10  -1  -5    4.96    1.21
 -10   1  -5    3.76    1.39
 -10   1  -5    3.83    0.83
  11   1   0    2.08    1.99
 -11  -1   0    3.67    0.92
  11  -1   0    1.68    0.71
  11  -1   0    2.53    0.73
 -11   1   0    1.90    0.82
  11  -1   0    1.40    2.06
  11   1   0    2.61    0.82
 -11   1   0   -0.51    1.26
  11  -1   1    8.71    1.33
 -11  -1  -1    5.44    1.14
 -11  -1  -1    7.59    1.38
  11  -1   1    6.59    1.74
  11  -1   1    5.94    0.98
  11   1  -1    5.97    1.07
 -11   1  -1    6.04    1.30
  11   1   1    6.89    1.28
  11   1   1    7.04    1.05
 -11   1  -1    5.85    1.13
  11   1   1    6.23    1.76
  11  -1  -1    4.74    1.17
  11  -1   2    5.35    0.99
 -11  -1  -2    5.70    1.19
  11  -1   2    4.49    2.19
  11  -1   2    2.53    1.00
 -11  -1  -2    2.66    1.03
  11   1  -2    2.41    0.68
 -11   1  -2    3.15    1.00
  11   1   2    4.12    0.95
 -11   1  -2    3.70    1.17
  11  -1  -2    4.05    0.87
  11   1   2    2.62    1.06
 -11  -1  -3    9.75    1.68
 -11  -1  -3   10.53    1.17
  11   1  -3   11.92    1.15
  11  -1   3    8.70    1.57
 -11   1  -3   11.33    2.01
 -11   1  -3    9.09    1.60
  11  -1  -3   12.16    1.16
 -11   1  -3    9.45    1.19
  11   1   3    9.82    1.55
 -11  -1  -4    0.60    0.75
 -11  -1  -4   -0.45    1.07
  11   1  -4   -0.78    0.87
 -11   1  -4    0.51    1.15
  11  -1  -4   -1.83    1.03
 -11   1  -4   -0.75    0.67
 -11  -1  -5    0.64    0.85
 -11  -1  -5   -1.86    1.25
 -11   1  -5    0.80    1.30
 -11   1  -5   -0.38    0.61
  12  -1   0   37.06    4.68
  12   1   0   37.21    2.01
  12  -1   0   39.48    2.06
  12  -1   0   39.55    2.08
  12   1   0   39.06    2.11
  12   1   0   32.10    3.83
  12  -1   1   10.39    1.19
  12  -1   1    7.00    2.03
  12  -1   1   11.01    1.30
  12   1  -1    8.76    1.13
 -12  -1  -1    7.26    1.17
  12   1   1   13.65    1.39
  12   1   1    8.30    2.30
  12  -1  -1    9.08    1.14
  12   1   1   16.00    1.58
 -12   1  -1   14.24    1.57
  12  -1  -1   10.25    1.18
 -12  -1  -2    7.78    1.36
  12   1  -2   10.58    1.08
  12  -1   2    8.03    1.91
  12   1   2   14.84    1.68
  12   1   2   14.89    1.44
  12  -1  -2   14.37    1.34
  12   1   2   12.61    2.05
  12  -1  -2   14.83    1.84
  12   1  -3    0.18    0.83
 -12  -1  -3    1.93    1.04
  12   1  -3    1.05    0.73
 -12  -1  -3   -0.13    0.86
  12  -1  -3    1.21    0.75
 -12   1  -3    0.81    0.81
  12  -1  -3    0.63    0.80
 -12   1  -3    0.63    0.95
 -12  -1  -4   -0.12    1.24
 -12  -1  -4   -0.03    0.98
 -12   1  -4    0.71    0.87
 -12   1  -4    1.65    0.91
  13  -1   0    2.54    0.82
  13   1   0    1.89    1.19
  13  -1   0    3.37    1.31
  13   1   0    1.65    0.72
 -13  -1  -1    2.49    0.75
  13   1  -1    2.93    0.85
  13   1  -1    3.78    0.87
  13  -1   1    4.69    1.16
  13  -1   1    3.53    0.83
  13   1   1    4.10    0.84
  13  -1  -1    3.95    0.92
  13  -1  -1    3.84    0.82
 -13   1  -1    2.35    0.76
  13   1   1    4.99    1.19
  13   1  -2    4.80    0.85
 -13  -1  -2    3.34    0.91
  13  -1   2    3.97    1.00
  13   1  -2    5.32    0.88
  13   1   2    5.35    1.06
  13  -1  -2    4.26    0.79
 -13   1  -2    5.45    0.99
  13  -1  -2    4.95    0.91
 -13  -1  -3    2.25    0.86
  13   1  -3    1.99    0.79
 -13   1  -3    3.10    0.88
  13  -1  -3    3.01    0.81
  14   1   0    0.39    0.61
  14  -1   0    0.87    1.42
  14   1   0    1.14    1.41
  14  -1   0    0.81    0.65
  14   1  -1    0.28    0.66
  14   1  -1    0.31    1.05
  14  -1   1    0.32    0.70
  14  -1  -1    0.44    0.91
  14   1   1    0.55    0.68
  14   1  -2    1.33    0.66
  14  -1  -2    1.46    0.65
  15   1   0    0.99    0.60
  15  -1   0   -0.03    0.57
   0  -2  -1  189.91    4.88
   0   2   1  189.00    4.74
   0  -2   1  188.69    4.78
   0   2  -1  177.26    4.93
   0   2  -1  174.21    4.84
   0  -2  -1  183.15    4.82
   0  -2  -2   96.73    2.79
   0  -2  -2  100.30    2.87
   0   2  -2   96.02    2.85
   0   2  -2   99.38    2.78
   0   2  -3    0.51    0.41
   0  -2  -3    0.26    0.33
   0   2  -3    0.23    0.35
   0   2  -3    0.13    0.32
   0  -2  -3    0.15    0.32
   0  -2  -3    0.55    0.39
   0  -2  -4   -0.12    0.59
   0   2  -4    0.26    0.42
   0   2  -4   -1.38    0.68
   0   2  -4    0.42    0.51
   0  -2  -4   -0.48    0.79
   0  -2  -4   -0.25    0.43
   0  -2  -4    0.41    0.48
   0  -2  -5   48.94    2.22
   0   2  -5   42.13    2.16
   0  -2  -5   49.62    2.13
   0  -2  -5   48.56    2.36
   0   2  -5   47.68    2.05
   0   2  -5   48.10    2.24
   0  -2  -6    3.18    0.94
   0   2  -6    1.41    0.74
   0  -2  -6    3.31    1.00
   0  -2  -6    2.43    0.70
   0   2  -6    3.20    1.39
   0   2  -6    4.84    1.14
   0  -2  -6    3.22    1.26
   0   2  -6    1.98    0.63
   0   2  -7    0.12    0.62
   0  -2  -7    0.59    0.57
   0  -2  -7   -0.02    0.87
   0  -2  -7    0.99    1.32
   1  -2   1  101.73    2.88
  -1  -2  -1  101.02    2.85
  -1  -2  -1  102.65    2.92
  -1   2  -1  104.96    2.87
  -1   2  -1  104.06    2.93
   1  -2  -1   94.77    2.63
   1  -2  -1  107.22    2.64
   1  -2  -1  103.49    2.70
   1  -2  -1  101.46    2.70
   1   2   1  102.02    2.90
  -1  -2  -2  214.79    5.95
   1   2  -2  211.15    5.66
   1   2  -2  211.85    5.58
  -1  -2  -2  208.64    5.84
  -1  -2  -2  221.21    5.86
   1  -2   2  216.33    5.65
   1  -2  -2  219.76    5.54
  -1   2  -2  213.96    5.75
   1  -2  -2  207.49    5.54
  -1   2  -2  213.08    5.90
   1  -2  -2  210.35    5.62
   1   2   2  208.87    5.55
  -1   2  -2  211.81    5.79
  -1  -2  -3   20.15    1.10
   1   2  -3   21.15    0.91
  -1  -2  -3   21.21    1.21
  -1  -2  -3   19.60    1.31
   1   2  -3   20.32    1.00
  -1  -2  -3   22.38    1.07
  -1   2  -3   20.12    1.39
   1  -2  -3   21.23    1.01
  -1   2  -3   21.50    1.05
   1  -2  -3   21.31    0.91
  -1   2  -3   21.01    1.23
  -1   2  -3   21.19    1.15
  -1  -2  -4    2.99    0.79
   1   2  -4    3.42    0.66
   1   2  -4    4.48    0.60
  -1  -2  -4    3.81    0.69
   1   2  -4    3.27    0.57
  -1  -2  -4    2.68    0.61
  -1   2  -4    3.08    0.74
   1  -2  -4    2.62    0.62
   1  -2  -4    3.86    0.59
   1  -2  -4    3.28    0.56
  -1   2  -4    2.56    0.62
  -1   2  -4    4.06    0.67
  -1  -2  -5   17.36    1.63
   1   2  -5   20.27    1.33
   1   2  -5   18.69    1.19
  -1  -2  -5   17.27    1.32
   1   2  -5   17.17    1.62
  -1  -2  -5   16.45    1.41
  -1  -2  -5   17.65    1.45
  -1   2  -5   18.11    1.49
   1  -2  -5   17.66    1.27
   1  -2  -5   17.71    1.23
   1  -2  -5   21.95    2.29
  -1   2  -5   17.68    1.61
  -1   2  -5   20.72    1.46
  -1   2  -5   16.89    1.26
   1   2  -6    2.15    0.65
  -1  -2  -6    1.06    0.88
   1   2  -6    1.40    0.84
  -1  -2  -6    3.25    1.39
   1   2  -6    1.27    1.39
  -1  -2  -6    2.31    0.93
   1   2  -6    3.12    0.96
  -1  -2  -6    3.05    0.80
   1  -2  -6    1.10    0.88
  -1   2  -6    2.43    0.76
  -1   2  -6    1.40    1.00
   1  -2  -6    1.11    1.28
  -1   2  -6    1.85    0.98
   1  -2  -6    2.40    0.71
   1  -2  -6    2.78    0.85
  -1   2  -6    2.00    0.65
  -1   2  -6    2.17    1.37
   1   2  -7    1.18    0.72
  -1  -2  -7    0.99    0.66
  -1  -2  -7    0.67    0.61
   1   2  -7    2.10    1.26
  -1   2  -7   -0.24    1.03
   1  -2  -7    0.88    0.77
  -1   2  -7    1.96    0.66
  -1   2  -7    0.14    0.70
   1  -2  -7    1.89    1.14
  -2  -2   0  314.25    8.25
  -2   2   0  323.25    8.27
  -2   2   0  315.39    8.33
  -2  -2   0  311.31    8.25
  -2   2   0  317.14    8.27
  -2  -2   0  325.19    8.36
  -2  -2  -1  501.63   13.33
   2  -2   1  498.61   13.39
  -2  -2  -1  523.41   13.34
  -2  -2  -1  522.08   13.41
   2  -2  -1  520.53   13.00
  -2   2  -1  506.10   13.25
   2  -2  -1  502.91   12.97
   2   2   1  514.27   13.34
  -2   2  -1  504.75   13.32
  -2   2  -1  498.04   13.26
  -2  -2  -2  100.53    3.08
  -2  -2  -2  101.06    3.01
   2  -2   2  101.98    3.05
  -2  -2  -2  101.51    3.11
  -2  -2  -2   94.90    3.17
   2   2   2   96.53    2.86
  -2   2  -2   99.88    3.09
  -2   2  -2   98.54    3.04
   2  -2  -2   96.48    2.58
   2   2   2   99.22    2.97
   2  -2  -2  101.16    2.58
  -2   2  -2   92.96    3.12
  -2   2  -2   99.57    2.93
  -2  -2  -3   71.73    2.72
  -2  -2  -3   71.20    2.74
  -2  -2  -3   81.09    2.72
  -2  -2  -3   71.79    2.62
   2   2  -3   76.92    2.18
   2   2  -3   77.07    2.27
  -2   2  -3   74.32    2.75
  -2   2  -3   68.92    2.72
  -2   2  -3   72.41    2.61
   2  -2  -3   76.11    2.23
   2  -2  -3   71.67    2.12
  -2   2  -3   75.93    2.63
   2   2  -4   25.66    1.15
  -2  -2  -4   26.10    1.53
  -2  -2  -4   25.61    1.54
   2   2  -4   26.04    1.16
  -2  -2  -4   26.61    1.95
  -2  -2  -4   27.35    1.69
   2   2  -4   25.06    1.32
  -2  -2  -4   25.20    1.42
   2  -2  -4   20.85    1.05
   2  -2  -4   25.04    1.12
  -2   2  -4   25.15    1.45
  -2   2  -4   20.61    1.82
  -2   2  -4   23.46    1.62
  -2   2  -4   24.62    1.50
  -2   2  -4   23.46    1.31
   2   2  -5   42.32    1.80
  -2  -2  -5   37.71    1.99
  -2  -2  -5   41.33    2.12
   2   2  -5   40.71    1.85
  -2  -2  -5   41.76    2.45
  -2  -2  -5   44.99    2.27
  -2   2  -5   41.71    1.99
  -2   2  -5   38.98    2.21
  -2   2  -5   41.28    2.08
   2  -2  -5   39.95    1.78
   2  -2  -5   41.18    1.97
  -2   2  -5   44.39    2.53
  -2  -2  -6   21.53    2.04
  -2  -2  -6   19.11    1.44
   2   2  -6   19.83    1.25
   2   2  -6   20.14    1.67
  -2  -2  -6   12.71    1.87
  -2  -2  -6   16.98    1.51
  -2   2  -6   20.44    1.37
  -2   2  -6   26.17    2.55
   2  -2  -6   19.66    1.39
  -2   2  -6   20.99    2.01
  -2   2  -6   18.51    1.91
   2  -2  -6   22.54    1.78
  -2   2  -6   19.59    1.49
  -2  -2  -7    0.15    0.56
  -2  -2  -7    0.31    0.55
   2   2  -7    0.20    0.82
  -2   2  -7    1.79    0.72
   2  -2  -7    0.56    0.89
  -2   2  -7    0.14    0.88
  -2   2  -7    0.26    0.55
  -3  -2   0  225.09    6.00
  -3  -2   0  226.21    5.99
  -3   2   0  235.34    6.04
  -3   2   0  230.29    6.00
  -3   2   0  222.02    6.10
  -3  -2   0  221.01    6.06
  -3  -2  -1    7.26    0.78
   3  -2   1    7.03    0.75
  -3  -2  -1    6.82    0.63
   3   2  -1    7.01    0.47
  -3  -2  -1    6.07    0.60
   3  -2  -1    5.62    0.36
   3   2   1    5.70    0.72
  -3   2  -1    6.30    0.71
  -3   2  -1    6.64    0.65
  -3   2  -1    7.37    0.67
   3  -2   2  209.61    5.89
  -3  -2  -2  203.23    5.95
  -3  -2  -2  204.59    5.84
  -3  -2  -2  199.13    5.81
  -3   2  -2  200.37    5.96
  -3   2  -2  201.33    5.82
   3   2   2  208.41    5.85
  -3   2  -2  206.76    5.83
   3  -2  -2  191.52    5.21
  -3   2  -2  217.50    5.83
  -3  -2  -3   72.82    2.61
  -3  -2  -3   75.78    2.71
   3  -2   3   73.78    2.38
   3   2  -3   72.21    2.12
  -3  -2  -3   72.01    2.81
  -3  -2  -3   69.75    2.68
   3   2  -3   71.01    2.00
  -3  -2  -3   73.51    2.57
  -3   2  -3   70.63    2.58
  -3   2  -3   70.98    2.73
   3  -2  -3   77.27    1.97
  -3   2  -3   72.72    2.51
   3  -2  -3   67.71    1.95
  -3   2  -3   74.47    2.88
   3   2   3   73.83    2.34
  -3   2  -3   71.03    2.69
  -3  -2  -4   21.36    1.71
  -3  -2  -4   20.81    1.31
  -3  -2  -4   21.68    1.52
   3   2  -4   20.64    1.28
  -3  -2  -4   20.95    1.40
  -3  -2  -4   18.47    1.56
  -3   2  -4   20.13    1.34
  -3   2  -4   20.32    1.49
  -3   2  -4   20.91    1.62
  -3   2  -4   21.81    1.62
  -3   2  -4   20.50    1.27
   3  -2  -4   17.35    0.96
  -3  -2  -5   13.02    1.30
  -3  -2  -5   12.37    1.30
   3   2  -5   15.50    1.28
  -3  -2  -5   15.54    1.88
   3   2  -5   14.00    1.28
  -3  -2  -5   11.12    1.44
   3   2  -5   14.69    1.05
  -3   2  -5   17.20    2.01
   3  -2  -5   13.23    1.07
   3  -2  -5   12.13    0.91
  -3   2  -5   13.40    1.28
  -3   2  -5   11.84    1.50
   3  -2  -5   11.66    1.13
  -3   2  -5   10.70    1.15
   3   2  -6    2.82    0.70
  -3  -2  -6    2.79    0.81
  -3  -2  -6    3.18    0.90
  -3   2  -6    2.29    0.81
   3  -2  -6    4.26    0.90
  -3   2  -6    4.52    1.20
  -3   2  -6    2.59    0.64
  -3  -2  -7    2.88    0.80
  -3  -2  -7    4.20    0.94
  -3  -2  -7    4.65    0.98
  -3   2  -7    3.39    0.76
  -3   2  -7    3.29    0.95
  -3   2  -7    2.97    1.47
   4   2   0    5.67    0.46
   4  -2   0    5.92    0.47
   4   2   0    6.63    0.78
  -4  -2   0    5.99    0.46
  -4  -2   0    5.51    0.54
  -4   2   0    6.42    0.47
  -4   2   0    6.11    0.59
   4   2  -1   60.81    1.88
  -4  -2  -1   59.42    2.03
   4  -2   1   60.89    1.94
  -4  -2  -1   60.15    2.19
   4  -2   1   61.15    2.24
  -4  -2  -1   58.00    2.04
   4   2   1   62.72    2.30
  -4   2  -1   60.02    2.18
   4  -2  -1   60.17    1.90
   4   2   1   58.20    1.92
  -4   2  -1   61.73    2.08
  -4   2  -1   60.78    2.11
   4   2  -2  161.63    4.28
  -4  -2  -2  156.41    4.86
   4  -2   2  148.83    4.43
  -4  -2  -2  156.33    4.70
   4  -2   2  159.20    4.84
  -4  -2  -2  153.62    4.71
   4   2   2  157.72    4.45
   4  -2  -2  155.77    4.12
  -4   2  -2  152.00    4.80
   4   2   2  158.16    4.85
   4  -2  -2  163.79    4.26
  -4   2  -2  152.46    4.87
  -4   2  -2  151.63    4.71
  -4  -2  -3   26.46    1.57
   4  -2   3   28.98    1.49
  -4  -2  -3   27.98    1.44
  -4  -2  -3   28.16    1.55
  -4  -2  -3   30.88    1.80
  -4  -2  -3   29.59    1.52
   4   2   3   28.86    1.46
  -4   2  -3   31.55    1.69
   4  -2  -3   26.62    0.79
  -4   2  -3   29.08    1.42
  -4   2  -3   29.65    1.63
   4  -2  -3   30.90    0.98
  -4   2  -3   29.54    1.50
  -4   2  -3   28.35    1.79
  -4  -2  -4   10.59    1.35
  -4  -2  -4   14.83    1.70
  -4  -2  -4   12.25    1.13
   4   2  -4   11.32    0.71
  -4  -2  -4   12.05    1.05
  -4  -2  -4    9.06    1.31
   4   2  -4   10.96    0.63
  -4   2  -4   14.48    1.68
  -4   2  -4   10.37    1.04
  -4   2  -4   12.09    1.45
  -4   2  -4   11.18    1.33
  -4   2  -4   10.88    0.97
   4  -2  -4    9.73    0.53
  -4  -2  -5    5.50    1.24
   4   2  -5    7.96    0.75
  -4  -2  -5    9.12    1.20
  -4  -2  -5    6.97    1.06
  -4  -2  -5    8.45    1.71
  -4  -2  -5    6.67    1.47
   4  -2  -5    7.37    0.62
  -4   2  -5    9.96    1.82
  -4   2  -5    7.08    1.75
  -4   2  -5    7.87    1.37
  -4   2  -5    8.33    1.10
  -4   2  -5    7.08    1.02
  -4   2  -5    7.76    1.40
  -4  -2  -6   14.22    1.69
  -4  -2  -6   14.91    1.36
  -4  -2  -6   16.00    1.35
  -4   2  -6   16.10    1.36
  -4   2  -6   11.43    1.51
  -4   2  -6   15.10    1.19
  -4  -2  -7    1.84    0.62
  -4  -2  -7    0.82    0.71
  -4   2  -7    0.94    0.73
  -4   2  -7    1.82    0.55
  -4   2  -7    3.74    0.98
   5  -2   0   60.06    1.87
   5   2   0   58.06    1.87
   5   2   0   56.40    2.26
  -5   2   0   56.89    1.98
  -5  -2   0   57.76    1.95
  -5   2   0   58.58    1.88
  -5  -2  -1  102.91    3.16
  -5  -2  -1  106.65    3.24
   5  -2   1   98.39    3.42
   5   2  -1  100.28    3.18
  -5  -2  -1   97.46    3.30
  -5   2  -1  104.97    3.16
  -5   2  -1  102.34    3.23
  -5   2  -1   99.13    3.33
   5  -2  -1   98.11    2.81
   5   2   1   99.09    3.45
   5  -2  -1   97.46    3.13
  -5  -2  -2   24.90    1.55
   5   2  -2   26.98    1.29
   5  -2   2   25.53    1.20
   5  -2   2   24.68    1.23
   5  -2   2   24.48    1.52
  -5  -2  -2   23.47    1.83
  -5  -2  -2   23.88    1.38
  -5  -2  -2   25.58    1.37
   5   2  -2   26.44    1.27
   5   2   2   21.54    1.19
   5   2   2   25.59    1.17
  -5   2  -2   24.52    1.51
   5  -2  -2   24.10    1.19
  -5   2  -2   25.24    1.45
  -5   2  -2   25.73    1.55
  -5   2  -2   27.09    1.41
   5  -2  -2   25.85    1.05
   5   2   2   23.92    1.52
   5   2  -3   25.12    0.95
  -5  -2  -3   26.03    1.56
  -5  -2  -3   24.68    1.44
  -5  -2  -3   22.39    2.11
  -5  -2  -3   26.30    1.60
  -5  -2  -3   23.65    1.35
  -5  -2  -3   25.05    1.69
   5  -2   3   23.91    1.52
   5   2   3   24.05    1.47
  -5   2  -3   21.73    1.34
  -5   2  -3   25.10    1.69
  -5   2  -3   24.14    2.65
  -5   2  -3   24.58    1.69
  -5   2  -3   25.03    1.55
   5  -2  -3   25.78    0.90
  -5   2  -3   23.92    1.37
  -5   2  -3   25.22    1.59
   5  -2  -3   23.59    1.04
   5   2  -4    6.31    0.48
  -5  -2  -4    6.08    1.10
  -5  -2  -4    8.23    1.26
  -5  -2  -4    5.63    1.21
  -5  -2  -4    6.85    0.96
   5   2  -4    6.88    0.47
  -5  -2  -4    7.24    1.22
  -5   2  -4    7.59    1.29
  -5   2  -4    5.24    1.04
  -5   2  -4    6.47    1.22
  -5   2  -4    7.43    1.35
  -5   2  -4    5.65    0.98
  -5   2  -4    8.27    0.97
  -5  -2  -5   11.33    1.83
  -5  -2  -5   12.76    1.38
  -5  -2  -5   13.02    1.89
  -5  -2  -5    9.74    1.17
  -5  -2  -5   11.38    1.69
  -5   2  -5   11.47    1.22
  -5   2  -5   14.50    1.92
  -5   2  -5   10.84    1.85
  -5   2  -5    9.88    1.45
  -5   2  -5   11.11    1.28
  -5   2  -5   11.08    1.82
  -5  -2  -6    5.88    0.91
  -5   2  -6    5.15    1.01
  -5   2  -6    3.34    1.12
  -5  -2  -7    0.73    0.52
  -5  -2  -7    0.51    0.68
  -5   2  -7    0.87    0.53
  -5   2  -7    1.16    0.62
  -6   2   0    2.22    0.29
  -6  -2   0    2.54    0.65
   6   2   0    1.96    0.45
   6   2   0    3.08    0.84
  -6   2   0    2.31    0.38
  -6   2   0    2.54    0.68
   6  -2   0    1.97    0.79
   6  -2   0    2.43    0.46
  -6  -2   0    2.05    0.31
  -6  -2  -1    1.00    0.45
  -6  -2  -1    1.51    0.55
  -6  -2  -1    2.31    1.21
  -6  -2  -1    0.68    0.56
  -6   2   1    1.42    0.45
   6  -2   1    1.52    0.67
   6  -2   1    1.17    0.45
   6   2  -1    1.00    0.34
  -6   2  -1    1.15    0.47
  -6   2  -1    1.00    0.61
  -6  -2   1    1.61    0.52
   6   2   1    1.06    0.66
  -6   2  -1   -0.02    0.55
  -6   2  -1    1.37    0.60
   6  -2  -1    1.47    0.37
   6   2   1    1.31    0.45
   6  -2   2   22.53    1.62
   6   2  -2   20.84    0.88
  -6  -2  -2   23.89    1.61
  -6  -2  -2   22.77    1.36
  -6  -2  -2   25.25    1.75
   6  -2   2   23.12    1.19
   6  -2   2   22.76    1.23
  -6  -2  -2   21.19    1.16
  -6  -2  -2   23.30    1.46
  -6  -2  -2   21.39    1.25
  -6  -2  -2   23.81    1.56
   6   2   2   22.17    1.22
   6   2   2   21.51    1.57
  -6   2  -2   21.99    1.54
   6   2   2   23.53    1.17
  -6   2  -2   22.12    1.57
  -6   2  -2   21.77    1.46
  -6   2  -2   22.84    1.74
  -6   2  -2   21.50    1.33
   6  -2  -2   20.48    0.85
  -6   2  -2   22.15    1.23
  -6  -2  -3    4.48    0.70
   6  -2   3    3.94    0.89
  -6  -2  -3    5.28    1.46
  -6  -2  -3    4.05    0.97
  -6  -2  -3    2.32    0.84
  -6  -2  -3    3.42    0.80
  -6  -2  -3    2.36    0.64
  -6   2  -3    3.17    0.79
  -6   2  -3    5.08    1.43
  -6   2  -3    2.85    0.97
  -6   2  -3    3.72    0.93
   6   2   3    2.24    0.82
  -6   2  -3    5.46    1.04
  -6   2  -3    3.81    0.74
  -6   2  -3    4.06    0.67
   6   2  -4   11.42    0.60
  -6  -2  -4   10.84    1.59
  -6  -2  -4   10.93    1.16
  -6  -2  -4   10.20    1.19
  -6  -2  -4   13.19    1.86
  -6  -2  -4   13.95    1.73
  -6  -2  -4    9.25    2.24
   6  -2   4   11.42    0.97
  -6   2  -4   13.35    1.74
   6   2   4   10.39    0.89
  -6   2  -4    9.65    1.12
  -6   2  -4   12.58    1.05
  -6   2  -4   10.38    2.21
  -6   2  -4   13.15    2.10
  -6   2  -4   12.02    1.75
  -6   2  -4   12.34    1.53
  -6  -2  -5    1.83    0.72
  -6  -2  -5    0.28    1.53
  -6  -2  -5   -0.61    1.21
  -6  -2  -5    1.19    0.89
  -6  -2  -5    2.66    1.51
  -6  -2  -5    1.52    0.70
  -6   2  -5   -1.06    1.11
  -6   2  -5    3.46    1.64
  -6   2  -5    0.83    0.69
  -6   2  -5    0.03    0.73
  -6   2  -5    0.95    1.63
  -6  -2  -6    3.87    0.84
  -6  -2  -6    1.94    0.84
  -6   2  -6    3.84    0.94
  -6   2  -6    2.88    0.70
  -6   2  -6    5.52    0.97
  -6  -2  -7   -0.21    0.72
  -6  -2  -7    0.79    1.04
  -6   2  -7    0.20    0.58
  -6   2  -7    0.19    0.69
  -7   2   0   46.52    2.02
   7  -2   0   50.65    2.45
   7  -2   0   47.62    1.79
   7   2   0   47.61    1.79
  -7  -2   0   46.51    2.03
   7   2   0   44.97    2.39
  -7  -2  -1   19.96    1.48
  -7  -2  -1   20.73    1.14
   7  -2   1   21.76    1.16
   7   2  -1   22.32    1.57
   7  -2   1   20.61    1.17
  -7  -2  -1   22.19    1.58
  -7   2   1   22.21    1.46
  -7   2   1   19.84    1.06
   7  -2   1   22.06    1.59
  -7   2  -1   21.34    1.49
  -7   2  -1   21.17    1.45
  -7   2  -1   23.87    1.22
  -7   2  -1   21.18    1.56
   7   2   1   21.51    1.16
   7   2   1   21.20    1.67
  -7  -2   1   22.35    1.12
  -7  -2  -2   34.12    1.96
   7  -2   2   34.61    2.13
  -7  -2  -2   34.51    1.59
  -7  -2  -2   34.58    2.10
   7  -2   2   36.10    1.64
  -7  -2  -2   32.28    2.06
   7  -2   2   33.85    1.57
  -7  -2  -2   33.71    1.70
  -7  -2  -2   35.33    1.93
  -7   2  -2   34.25    2.10
  -7   2  -2   31.03    1.94
   7   2   2   33.89    1.55
  -7   2  -2   34.07    1.74
   7   2   2   32.86    1.59
  -7   2  -2   30.62    2.05
   7   2   2   33.09    2.04
  -7   2  -2   37.90    1.90
  -7  -2  -3   21.10    2.18
   7  -2   3   21.29    1.72
  -7  -2  -3   19.35    1.67
  -7  -2  -3   21.86    1.26
  -7  -2  -3   20.77    1.37
  -7  -2  -3   21.44    2.16
   7   2  -3   19.33    0.97
  -7  -2  -3   19.72    1.66
  -7   2  -3   21.01    1.32
  -7   2  -3   19.93    1.33
   7   2   3   17.74    1.61
  -7   2  -3   21.34    2.16
   7  -2  -3   19.60    0.98
  -7   2  -3   19.84    1.71
  -7   2  -3   20.53    1.60
   7  -2   4   28.14    1.61
  -7  -2  -4   25.61    1.96
  -7  -2  -4   27.77    1.69
  -7  -2  -4   26.73    2.52
  -7  -2  -4   26.49    1.99
  -7  -2  -4   35.42    3.18
  -7  -2  -4   25.63    1.58
  -7   2  -4   25.53    1.65
  -7   2  -4   25.01    1.89
  -7   2  -4   26.66    2.60
  -7   2  -4   29.83    2.69
  -7   2  -4   27.55    1.98
  -7   2  -4   26.91    1.60
   7   2   4   27.56    1.56
  -7  -2  -5    1.51    0.87
  -7  -2  -5    1.32    0.75
  -7  -2  -5    1.73    0.68
  -7  -2  -5    2.91    1.30
  -7   2  -5    1.70    0.89
  -7   2  -5    1.36    0.59
  -7   2  -5   -0.07    1.20
  -7   2  -5   -0.05    0.91
  -7  -2  -6    0.16    1.28
  -7  -2  -6    0.06    0.55
  -7  -2  -6    0.59    0.79
  -7   2  -6    2.16    0.81
  -7   2  -6    0.90    0.58
  -7   2  -6    2.20    1.24
   8  -2   0   11.10    0.87
   8   2   0   10.12    1.61
  -8  -2   0   11.25    1.38
   8   2   0    9.77    0.85
  -8   2   0   13.21    1.33
  -8   2   0    9.92    1.97
   8  -2   0   11.98    1.60
  -8   2   1    8.03    0.76
   8  -2   1    6.04    0.79
  -8   2   1    6.24    1.08
  -8  -2  -1    8.63    1.15
   8   2  -1    7.84    0.81
  -8  -2  -1    5.18    0.66
   8  -2   1    6.92    1.35
   8  -2   1    6.81    0.84
  -8  -2  -1    7.25    1.15
   8   2   1    6.77    1.30
  -8   2  -1    7.35    1.16
   8  -2  -1    6.98    0.76
  -8  -2   1    6.36    0.72
  -8   2  -1    7.49    0.78
   8   2   1    5.03    0.73
  -8   2  -1    7.68    1.10
  -8  -2  -2   13.79    1.70
  -8  -2  -2   16.09    1.39
  -8  -2  -2    9.58    1.45
   8  -2   2   14.99    1.15
   8   2  -2   13.90    0.92
  -8  -2  -2   19.25    1.95
   8  -2   2   14.72    1.17
   8  -2   2   15.89    1.83
  -8   2  -2   12.34    1.51
   8   2   2   18.05    1.94
  -8   2  -2   16.43    1.80
   8   2   2   14.41    1.17
   8   2   2   13.18    1.07
  -8   2  -2   12.99    1.71
   8  -2  -2   15.97    0.93
  -8   2  -2   15.04    1.36
  -8  -2  -3   25.30    2.16
  -8  -2  -3   23.56    2.40
  -8  -2  -3   26.38    1.70
   8   2  -3   23.57    1.44
   8  -2   3   23.23    1.91
  -8  -2  -3   23.96    1.45
  -8  -2  -3   24.77    1.78
  -8  -2  -3   25.24    1.69
  -8   2  -3   21.55    1.41
  -8   2  -3   23.55    2.41
  -8   2  -3   25.64    1.81
  -8   2  -3   24.30    1.70
   8  -2  -3   24.66    1.21
  -8   2  -3   25.54    2.17
   8   2   3   22.55    1.87
  -8  -2  -4    8.37    2.21
  -8  -2  -4    9.79    1.97
  -8  -2  -4    9.11    1.04
   8   2  -4   10.03    0.72
  -8  -2  -4   10.74    1.47
  -8   2  -4    9.75    1.90
  -8   2  -4   11.11    1.11
  -8   2  -4    5.88    2.16
  -8   2  -4    9.04    2.17
  -8   2  -4    7.98    1.94
  -8   2  -4    8.52    1.36
  -8  -2  -5    7.38    1.28
  -8  -2  -5    6.31    0.90
  -8  -2  -5    6.74    1.38
  -8  -2  -5    4.72    1.90
  -8   2  -5    8.29    1.53
  -8   2  -5    5.80    1.71
  -8   2  -5    6.63    0.94
  -8   2  -5    4.88    1.28
  -8   2  -5    8.48    1.99
  -8  -2  -6    3.47    0.82
  -8  -2  -6    5.27    1.31
  -8   2  -6    1.95    0.75
  -8   2  -6    2.86    0.77
  -8   2  -6    3.54    1.18
  -9   2   0   13.52    1.25
  -9  -2   0   14.83    1.28
  -9   2   0   13.00    1.43
   9   2   0   15.62    2.06
   9  -2   0   15.10    2.04
   9  -2   0   12.77    1.00
   9   2   0   12.61    1.00
  -9   2   1   41.10    3.34
   9  -2   1   40.01    1.94
  -9  -2  -1   42.49    1.45
  -9  -2  -1   38.85    2.12
   9   2  -1   40.27    1.80
  -9   2   1   47.86    1.78
  -9  -2  -1   40.33    2.18
   9  -2   1   39.58    2.70
   9   2   1   40.19    2.67
  -9   2  -1   39.24    2.16
  -9   2  -1   39.74    2.11
   9  -2  -1   37.97    1.74
   9   2   1   44.35    2.71
  -9   2  -1   39.63    1.32
  -9  -2  -2   40.81    2.16
   9  -2   2   38.51    1.91
  -9  -2  -2   38.23    2.35
   9  -2   2   37.44    1.87
   9  -2   2   40.86    2.70
  -9  -2  -2   37.90    1.89
   9   2  -2   38.32    1.70
  -9   2  -2   41.11    1.91
   9   2   2   42.16    2.68
  -9   2  -2   39.20    2.48
   9  -2  -2   39.77    1.73
  -9   2  -2   39.91    2.25
   9   2   2   38.08    1.93
   9   2   2   38.11    1.93
   9   2  -3   19.13    1.15
  -9  -2  -3   21.26    1.71
  -9  -2  -3   20.71    2.23
   9  -2   3   15.68    1.81
  -9  -2  -3   17.16    1.51
  -9   2  -3   19.07    1.64
  -9   2  -3   18.51    1.53
   9   2   3   19.46    1.86
  -9   2  -3   20.18    2.18
   9  -2  -3   19.80    1.23
  -9  -2  -4    3.89    1.47
  -9  -2  -4    1.88    0.83
   9   2  -4    2.93    0.76
   9  -2   4    0.79    0.96
  -9  -2  -4    0.64    0.91
  -9   2  -4    2.54    0.95
   9   2   4    0.38    0.93
  -9   2  -4    1.87    1.57
  -9   2  -4    1.02    0.99
  -9   2  -4    1.52    0.86
   9  -2  -4    1.89    0.91
  -9  -2  -5    3.25    1.69
  -9   2  -5    2.09    1.82
  -9   2  -5    0.47    0.72
  -9   2  -5    0.49    1.68
  -9  -2  -6    1.35    0.69
  -9   2  -6    0.33    0.57
  10  -2   0    1.91    2.32
 -10   2   0    0.34    0.62
  10  -2   0    0.53    0.56
  10   2   0    1.72    1.78
 -10   2   0    1.72    1.06
  10  -2   0    0.24    0.62
  10   2   0    0.01    0.45
 -10  -2   0    0.15    1.05
  10  -2   1    2.55    1.38
 -10  -2  -1    3.43    1.06
  10  -2   1    3.13    0.79
  10   2  -1    2.14    0.66
 -10  -2  -1    0.95    1.05
  10   2   1    1.79    1.34
  10   2   1    1.53    0.81
 -10   2  -1    2.72    1.00
  10  -2  -1    2.15    0.63
 -10   2  -1    2.97    0.99
 -10  -2  -2   38.06    2.37
 -10  -2  -2   36.96    2.16
  10  -2   2   36.94    2.04
 -10  -2  -2   38.50    1.70
  10  -2   2   39.86    1.97
  10  -2   2   34.64    2.76
  10   2  -2   37.60    1.74
 -10   2  -2   35.20    2.45
  10   2   2   39.54    2.02
  10   2   2   38.43    2.07
  10   2   2   43.38    2.99
  10  -2  -2   38.05    1.76
 -10   2  -2   40.90    2.29
 -10   2  -2   39.73    1.71
  10  -2   3   -0.97    1.68
 -10  -2  -3   -0.30    0.92
 -10  -2  -3    1.10    0.91
  10   2  -3   -0.58    0.50
  10   2   3    0.43    1.51
 -10   2  -3    1.32    1.11
 -10   2  -3    0.53    0.86
  10  -2  -3   -0.40    0.60
  10  -2   4    1.46    1.86
 -10  -2  -4    0.71    0.85
 -10  -2  -4   -1.19    1.19
 -10  -2  -4   -0.32    0.86
  10   2  -4    0.07    0.74
  10  -2  -4    1.26    0.81
 -10   2  -4    0.77    1.25
 -10   2  -4    0.46    0.87
 -10  -2  -5    1.14    0.69
 -10  -2  -5    1.45    1.37
 -10   2  -5    2.37    1.47
 -10   2  -5    1.47    0.76
 -11   2   0    3.58    0.82
  11   2   0    4.14    2.17
  11  -2   0    4.26    0.84
 -11  -2   0    3.81    0.87
  11   2   0    4.47    0.90
  11  -2   0    4.71    2.18
  11  -2   0    3.06    0.85
  11  -2   1   26.18    3.81
 -11  -2  -1   25.03    1.87
  11  -2   1   25.46    1.68
  11   2   1   31.12    4.80
 -11   2  -1   26.45    1.92
 -11   2  -1   23.73    1.85
  11  -2  -1   27.43    1.70
  11  -2   2    9.30    1.18
  11   2  -2    5.41    0.85
 -11  -2  -2    7.52    1.29
  11  -2   2    7.71    1.94
 -11  -2  -2    8.49    1.46
  11  -2   2    5.68    1.18
  11  -2  -2    8.81    1.12
  11   2   2    7.32    1.07
 -11   2  -2    5.90    1.28
  11   2   2    6.41    1.26
  11   2   2    8.24    2.00
  11  -2  -2    6.63    0.97
 -11   2  -2    6.38    1.22
 -11  -2  -3    1.62    1.51
 -11  -2  -3    2.91    1.30
  11   2  -3    1.17    0.69
 -11  -2  -3    1.02    1.07
  11  -2   3    1.59    1.22
  11  -2  -3    0.96    0.91
  11  -2  -3    0.45    0.68
 -11   2  -3    1.26    1.21
  11   2   3    1.30    1.27
 -11  -2  -4    7.17    1.39
  11   2  -4    5.18    0.99
 -11  -2  -4    3.92    1.01
 -11   2  -4    3.16    0.91
  11  -2  -4    3.01    1.40
 -11   2  -4    4.77    1.32
 -11  -2  -5    2.69    0.82
 -11  -2  -5    6.58    1.43
 -11   2  -5    1.95    0.65
 -11   2  -5    1.71    1.09
  12   2   0   11.39    1.29
  12  -2   0    9.39    3.31
  12  -2   0    8.31    1.14
  12   2   0    8.61    2.90
  12  -2   0   13.28    1.33
  12   2   0   10.86    1.22
  12  -2   1   11.93    1.38
  12  -2   1   14.58    2.57
  12   2  -1   14.62    1.34
 -12  -2  -1   16.23    1.59
  12  -2   1   13.45    1.34
 -12   2  -1   12.85    1.81
  12  -2  -1   15.32    1.48
  12   2   1   12.74    1.30
  12  -2  -1   14.26    1.31
  12   2   1   12.02    1.34
  12   2   1   12.75    2.47
  12  -2   2    1.15    0.85
  12  -2   2   -0.09    1.52
  12  -2   2    0.18    1.34
 -12  -2  -2    1.23    1.48
  12   2  -2    0.20    0.62
  12   2   2    0.81    0.83
  12  -2  -2    1.69    0.66
 -12   2  -2    1.32    1.64
  12   2   2    1.45    1.36
 -12   2  -2   -0.27    0.92
  12  -2  -2    1.36    0.76
  12   2   2    0.41    1.37
 -12  -2  -3    0.63    0.92
  12   2  -3    0.53    0.65
 -12  -2  -3    1.95    1.41
 -12   2  -3    1.34    0.86
  12  -2  -3    0.34    0.81
  12  -2  -3    1.90    0.75
 -12   2  -3    0.08    0.78
 -12  -2  -4    4.59    1.30
 -12  -2  -4    4.39    1.10
 -12   2  -4    4.35    0.87
 -12   2  -4    4.94    1.13
  13  -2   0   -0.67    1.05
  13  -2   0   -0.46    0.61
  13   2   0   -1.71    1.08
  13   2   0   -0.74    0.54
  13  -2   1    2.43    0.78
  13   2  -1    2.52    0.86
  13  -2   1    2.40    1.06
  13   2  -1    1.89    0.73
 -13  -2  -1    1.33    0.70
  13   2   1    1.82    0.79
  13   2   1    1.24    1.02
  13  -2  -1    3.39    0.88
  13  -2  -1    1.99    0.74
 -13   2  -1    2.16    0.76
  13   2  -2    9.19    1.06
  13   2  -2   11.59    1.11
 -13  -2  -2    6.94    1.08
  13  -2   2    9.57    1.20
  13  -2  -2   10.62    1.08
 -13   2  -2   10.88    1.45
  13   2   2    7.74    1.15
  13  -2  -2    9.98    1.09
 -13   2  -2   10.61    1.23
  13   2  -3    2.33    0.82
 -13  -2  -3    1.17    0.82
 -13   2  -3    0.88    0.83
  13  -2  -3    2.13    0.80
 -13   2  -3    0.61    1.18
  14  -2   0    0.79    0.61
  14   2   0    0.22    1.08
  14   2   0   -0.14    0.61
  14  -2   0   -1.67    1.10
  14  -2   1   -0.56    0.62
  14   2  -1   -0.49    0.84
  14   2  -1    0.96    0.99
  14  -2  -1    0.27    0.89
  14  -2  -1   -1.24    0.70
  14   2   1    1.18    0.69
  14   2  -2    3.59    0.71
  14  -2  -2    4.17    0.75
  15   2   0    1.01    0.78
  15  -2   0   -0.21    0.66
   0   3   0   -0.03    0.18
   0   3   0    0.04    0.17
   0   3   1   18.38    0.63
   0  -3  -1   18.48    0.70
   0   3   1   17.97    0.69
   0  -3  -1   18.90    0.76
   0   3   1   17.99    0.67
   0   3  -1   16.90    0.75
   0   3  -1   17.91    0.69
   0  -3   1   18.71    0.70
   0   3  -2   98.29    2.78
   0  -3  -2   96.81    2.88
   0  -3  -2   94.92    2.79
   0   3  -2   96.88    2.87
   0   3  -3   39.95    1.43
   0  -3  -3   36.65    1.39
   0  -3  -3   36.70    1.48
   0   3  -3   36.64    1.60
   0   3  -3   37.58    1.48
   0  -3  -3   39.11    1.60
   0  -3  -4   -0.38    1.04
   0  -3  -4    0.01    0.45
   0   3  -4   -0.52    0.40
   0  -3  -4   -0.55    0.40
   0  -3  -4    0.16    0.43
   0   3  -4   -0.04    0.44
   0   3  -4    0.12    0.41
   0   3  -5   15.55    1.15
   0  -3  -5   13.50    1.20
   0  -3  -5   15.52    1.49
   0   3  -5   15.24    1.45
   0   3  -5   15.67    1.38
   0  -3  -5   13.57    1.22
   0   3  -5   12.63    1.50
   0  -3  -5   17.53    1.60
   0   3  -6    9.63    1.43
   0   3  -6    8.63    0.96
   0  -3  -6    7.72    1.50
   0  -3  -6    8.21    1.13
   0   3  -6   10.28    1.38
   0   3  -6    8.59    1.66
   0   3  -6    8.89    1.13
   0  -3  -6    8.85    1.08
   0  -3  -6    9.57    1.28
   0   3  -7    1.66    0.75
   0   3  -7    2.81    0.97
   0  -3  -7    3.92    0.95
   0  -3  -7    2.39    0.70
  -1   3   0   94.97    2.60
  -1   3   0   92.93    2.62
  -1  -3   0   95.55    2.61
  -1   3   0   93.32    2.64
  -1   3  -1  901.83   23.37
   1  -3   2   37.00    1.25
   1   3  -2   37.21    1.25
   1   3  -2   36.31    1.16
  -1  -3  -2   34.65    1.30
  -1  -3  -2   38.30    1.38
  -1  -3  -2   35.67    1.45
   1  -3  -2   36.77    1.16
  -1   3  -2   35.22    1.46
  -1   3  -2   34.58    1.28
   1   3   2   36.38    1.15
   1  -3  -2   36.28    1.23
  -1   3  -2   36.53    1.35
   1  -3  -2   36.49    1.15
  -1   3  -2   36.77    1.45
  -1  -3  -3   87.87    3.07
   1   3  -3   91.75    2.81
  -1  -3  -3   88.20    3.04
   1   3  -3   91.89    2.71
   1   3  -3   85.38    2.59
  -1  -3  -3   93.94    2.86
  -1  -3  -3   89.49    2.92
   1  -3  -3   94.29    2.71
  -1   3  -3   91.19    2.80
  -1   3  -3   87.00    2.91
  -1   3  -3   85.92    3.02
   1  -3  -3   85.24    2.53
   1  -3  -3   92.08    2.81
   1   3  -4   15.97    1.13
  -1  -3  -4   13.97    1.25
   1   3  -4   16.74    1.35
  -1  -3  -4   13.89    1.10
  -1  -3  -4   16.40    1.11
  -1  -3  -4   14.95    1.22
  -1   3  -4   13.36    1.21
  -1   3  -4   15.26    1.01
   1  -3  -4   15.02    1.07
  -1   3  -4   12.41    1.16
  -1   3  -4   15.87    1.16
   1   3  -5    4.18    0.75
   1   3  -5    4.61    0.86
  -1  -3  -5    4.28    0.83
  -1  -3  -5    4.50    1.07
  -1  -3  -5    4.97    0.99
   1   3  -5    2.95    0.97
   1   3  -5    3.78    0.92
  -1  -3  -5    3.67    0.85
   1  -3  -5    3.74    0.75
  -1   3  -5    3.86    1.06
  -1   3  -5    3.47    0.72
   1  -3  -5    4.85    1.26
   1  -3  -5    6.16    1.18
  -1   3  -5    4.41    0.89
   1  -3  -5    4.43    0.81
  -1   3  -5    3.92    0.88
   1   3  -6   19.75    1.74
   1   3  -6   25.21    2.44
   1   3  -6   21.04    2.02
  -1  -3  -6   19.64    1.76
   1   3  -6   20.61    1.28
   1   3  -6   20.20    1.59
  -1  -3  -6   20.26    1.63
  -1  -3  -6   16.99    2.04
  -1  -3  -6   21.26    1.50
  -1   3  -6   17.60    2.08
  -1   3  -6   21.10    2.04
   1  -3  -6   18.02    1.33
  -1   3  -6   19.41    1.82
  -1   3  -6   20.44    1.51
   1  -3  -6   15.93    2.26
  -1   3  -6   19.61    1.33
   1  -3  -6   18.72    1.54
   1  -3  -6   20.83    1.69
  -1  -3  -7    2.27    1.55
   1   3  -7    1.28    1.29
   1   3  -7    3.79    0.80
  -1  -3  -7    3.81    0.86
  -1  -3  -7    2.41    0.72
  -1   3  -7    2.60    0.86
   1  -3  -7    2.53    0.86
  -1   3  -7    3.17    0.70
   1  -3  -7    2.19    0.86
  -2   3   0  202.36    5.28
  -2  -3   0  198.17    5.25
  -2  -3   0  200.83    5.25
  -2  -3   0  194.13    5.30
  -2   3   0  196.74    5.33
  -2   3   0  193.93    5.26
  -2  -3  -1  128.24    3.69
  -2  -3  -1  132.72    3.79
  -2  -3  -1  130.79    3.70
   2  -3  -1  131.38    3.44
   2   3   1  127.69    3.75
   2  -3  -1  125.41    3.41
  -2   3  -1  130.16    3.75
   2  -3  -1  127.09    3.49
  -2   3  -1  126.63    3.67
  -2   3  -1  133.00    3.70
  -2  -3  -2   76.52    2.47
  -2  -3  -2   77.54    2.55
   2   3  -2   77.55    2.15
  -2  -3  -2   80.39    2.65
   2  -3   2   81.98    2.54
   2  -3  -2   77.93    2.22
  -2   3  -2   78.81    2.44
   2  -3  -2   75.76    2.12
   2  -3  -2   78.98    2.21
  -2   3  -2   75.84    2.57
   2   3   2   79.09    2.49
  -2   3  -2   75.42    2.63
   2   3   2   81.64    2.39
   2  -3  -2   79.95    2.19
  -2  -3  -3    6.47    0.92
  -2  -3  -3    7.75    0.84
  -2  -3  -3    7.04    0.85
  -2  -3  -3    8.00    0.99
   2   3  -3    6.23    0.56
  -2  -3  -3    6.87    0.84
   2   3  -3    5.86    0.49
  -2   3  -3    5.57    0.76
  -2   3  -3    6.35    0.91
   2  -3  -3    6.02    0.47
  -2   3  -3    6.66    0.95
   2  -3  -3    5.80    0.53
  -2   3  -3    5.67    0.77
   2  -3  -3    6.01    0.55
  -2   3  -3    7.14    0.74
  -2  -3  -4   12.46    1.48
   2   3  -4   10.62    0.89
  -2  -3  -4   11.17    1.29
  -2  -3  -4   11.31    1.10
   2   3  -4   10.11    0.85
  -2  -3  -4   10.84    1.13
  -2  -3  -4   11.13    1.15
  -2   3  -4   10.90    0.95
  -2   3  -4   10.55    1.27
   2  -3  -4   11.68    0.89
  -2   3  -4   11.63    1.17
  -2   3  -4   12.31    1.56
  -2   3  -4   11.12    1.04
   2   3  -5    3.57    0.73
  -2  -3  -5    1.81    1.07
  -2  -3  -5    4.82    1.23
   2   3  -5    3.21    0.87
  -2  -3  -5    2.91    0.82
   2   3  -5    4.36    0.74
  -2  -3  -5    3.85    0.84
  -2   3  -5    3.35    0.80
  -2   3  -5    3.87    1.10
   2  -3  -5    3.94    0.84
  -2   3  -5    2.50    0.70
  -2   3  -5    2.17    1.13
   2  -3  -5    3.32    0.74
   2  -3  -5    3.70    0.68
  -2  -3  -6   18.97    1.90
  -2  -3  -6   16.43    1.50
   2   3  -6   17.72    1.53
  -2  -3  -6   15.73    1.37
   2   3  -6   15.88    1.12
  -2   3  -6   17.14    2.17
  -2   3  -6   15.87    1.21
   2  -3  -6   17.27    1.73
  -2   3  -6   18.71    2.75
  -2   3  -6   15.57    1.37
   2  -3  -6   16.83    1.31
  -2   3  -6   13.55    1.62
  -2  -3  -7    1.63    0.66
  -2  -3  -7    0.54    0.61
   2   3  -7    0.79    0.82
  -2  -3  -7   -1.44    1.36
  -2   3  -7   -1.27    0.95
  -2   3  -7    0.15    0.63
  -2   3  -7    1.29    0.54
   2  -3  -7    0.89    0.96
  -3   3   0   31.74    1.09
  -3  -3   0   29.92    1.07
  -3  -3   0   31.48    1.15
  -3   3   0   29.90    1.18
  -3   3   0   31.21    1.12
   3   3   0   30.15    1.31
  -3  -3   0   32.17    1.08
  -3  -3  -1   52.97    1.79
  -3  -3  -1   54.30    1.92
   3  -3   1   52.08    1.92
  -3  -3  -1   51.60    1.79
   3  -3  -1   51.10    1.69
  -3   3  -1   54.69    1.87
  -3   3  -1   55.97    1.95
   3   3   1   54.71    1.98
   3  -3  -1   51.69    1.61
  -3   3  -1   51.05    1.80
  -3  -3  -2   55.38    2.15
  -3  -3  -2   53.64    2.02
   3  -3   2   54.85    2.07
  -3   3  -2   52.37    2.05
   3  -3  -2   55.51    1.59
   3  -3  -2   54.57    1.62
   3   3   2   56.94    2.07
  -3   3  -2   53.25    2.02
   3  -3  -2   56.04    1.53
  -3   3  -2   54.71    2.16
   3  -3  -2   53.11    1.50
  -3   3  -2   52.23    1.99
   3   3  -3   85.22    2.41
  -3  -3  -3   85.82    3.08
   3   3  -3   83.34    2.53
   3  -3   3   82.96    2.71
  -3  -3  -3   88.03    3.21
  -3  -3  -3   85.91    3.04
  -3  -3  -3   81.84    2.94
   3  -3  -3   87.31    2.36
   3   3   3   83.79    2.62
   3  -3  -3   79.27    2.41
   3  -3  -3   81.63    2.34
  -3   3  -3   85.01    3.06
  -3   3  -3   80.13    2.86
  -3   3  -3   83.39    3.03
  -3   3  -3   83.00    3.20
  -3  -3  -4   29.41    1.88
   3   3  -4   29.42    1.22
  -3  -3  -4   29.05    2.50
  -3  -3  -4   29.17    1.73
  -3  -3  -4   30.37    1.68
  -3  -3  -4   30.13    1.61
   3   3  -4   27.59    1.30
   3  -3  -4   29.99    1.24
  -3   3  -4   27.19    1.48
  -3   3  -4   30.34    1.92
  -3   3  -4   28.77    1.79
   3  -3  -4   29.30    1.17
  -3   3  -4   28.22    1.59
   3   3  -5    0.58    0.71
  -3  -3  -5    0.18    0.58
  -3  -3  -5   -0.23    0.58
  -3  -3  -5    0.49    0.81
   3   3  -5    0.03    0.56
  -3  -3  -5   -0.22    0.78
  -3   3  -5   -0.62    0.90
  -3   3  -5   -0.77    0.53
   3  -3  -5   -0.21    0.57
   3  -3  -5    0.00    0.62
  -3   3  -5   -0.41    0.54
  -3   3  -5    0.00    0.88
  -3   3  -5   -0.24    0.82
  -3  -3  -6    9.23    1.28
  -3  -3  -6    9.15    1.19
  -3   3  -6    8.48    1.03
  -3   3  -6    9.93    1.48
   3  -3  -6   11.98    1.20
  -3   3  -6    8.88    1.18
  -3  -3  -7    5.12    1.04
  -3  -3  -7    2.16    1.04
  -3  -3  -7    5.81    1.28
  -3   3  -7    3.05    1.03
  -3   3  -7    5.25    1.01
  -3   3  -7    2.43    0.82
  -4  -3   0  260.58    7.13
  -4   3   0  281.66    7.15
  -4   3   0  265.18    7.19
   4   3   0  256.48    7.03
   4  -3   0  259.18    7.03
  -4  -3  -1  114.02    3.49
  -4  -3  -1  112.19    3.35
   4   3  -1  112.70    3.25
   4  -3   1  109.59    3.25
  -4  -3  -1  108.45    3.36
  -4  -3  -1  110.23    3.28
  -4   3  -1  109.39    3.51
  -4   3  -1  110.59    3.19
  -4   3  -1  112.74    3.35
  -4   3  -1  111.07    3.41
   4   3   1  107.21    3.19
  -4  -3  -2   32.90    1.51
   4  -3   2   28.35    1.53
  -4  -3  -2   29.21    1.56
  -4  -3  -2   30.57    1.48
   4   3  -2   33.12    1.25
   4  -3   2   28.30    1.27
  -4   3  -2   36.28    1.90
   4   3   2   31.83    1.62
  -4   3  -2   29.81    1.47
   4  -3  -2   31.02    1.19
   4  -3  -2   31.44    1.07
   4   3   2   28.05    1.25
  -4   3  -2   33.17    1.58
  -4  -3  -3  115.97    3.91
  -4  -3  -3  115.77    3.79
  -4  -3  -3  115.59    4.23
  -4  -3  -3  112.61    3.89
   4   3  -3  111.41    3.15
   4  -3   3  116.27    3.75
  -4  -3  -3  118.30    3.75
  -4   3  -3  117.72    4.21
   4   3   3  118.71    3.77
  -4   3  -3  116.03    4.00
   4  -3  -3  120.39    3.35
  -4   3  -3  116.70    3.69
   4  -3  -3  111.89    3.16
   4  -3  -3  121.46    3.21
  -4   3  -3  117.77    4.01
  -4   3  -3  113.86    3.77
  -4  -3  -4   20.29    1.75
   4   3  -4   22.22    0.97
  -4  -3  -4   20.31    1.41
  -4  -3  -4   23.03    1.40
  -4  -3  -4   23.51    1.65
  -4  -3  -4   23.05    1.79
   4   3  -4   21.34    1.20
  -4   3  -4   20.27    1.62
  -4   3  -4   22.17    1.74
  -4   3  -4   20.21    1.65
   4  -3  -4   20.95    0.86
  -4   3  -4   23.75    1.43
  -4   3  -4   22.25    1.29
  -4   3  -4   18.51    1.77
  -4  -3  -5    3.62    0.89
  -4  -3  -5    2.26    1.00
  -4  -3  -5    2.73    1.15
   4   3  -5    4.35    0.72
   4   3  -5    4.73    0.69
  -4  -3  -5    4.08    1.47
  -4  -3  -5    3.32    0.83
  -4   3  -5    4.60    1.22
  -4   3  -5    4.52    1.18
  -4   3  -5    2.83    1.36
  -4   3  -5    2.11    1.47
  -4   3  -5    3.27    0.80
  -4   3  -5    3.73    0.81
   4   3  -6    4.02    1.11
  -4  -3  -6    3.42    0.87
  -4  -3  -6    3.02    0.87
  -4   3  -6    2.88    0.79
  -4  -3  -7    1.72    0.62
  -4  -3  -7    1.49    0.76
  -4   3  -7    1.90    0.54
  -4   3  -7    1.87    0.79
  -5  -3   0   15.80    0.92
  -5   3   0   15.75    0.97
   5   3   0   16.46    0.82
  -5   3   0   14.00    1.00
   5   3   0   16.72    1.20
   5  -3   0   16.42    0.80
  -5  -3  -1    4.96    0.75
  -5  -3  -1    6.92    0.74
   5   3  -1    6.93    0.51
   5  -3   1    6.06    0.88
  -5  -3  -1    7.26    0.74
   5  -3  -1    6.41    0.50
  -5   3  -1    6.26    0.84
  -5   3  -1    7.95    0.87
  -5   3  -1    6.27    0.71
   5   3   1    7.70    1.02
  -5  -3  -2   12.67    0.92
  -5  -3  -2   13.27    1.28
   5  -3   2   11.79    0.94
  -5  -3  -2   13.06    1.00
  -5  -3  -2   11.73    1.12
   5  -3   2   13.13    1.34
  -5  -3  -2   13.73    1.22
   5   3  -2   14.23    0.83
   5  -3   2   11.05    0.89
   5  -3  -2   10.82    1.01
  -5   3  -2   13.71    1.12
   5   3   2   11.74    0.90
  -5   3  -2   13.24    0.81
  -5   3  -2   11.76    1.14
   5  -3  -2   13.36    0.81
  -5   3  -2   12.54    1.18
  -5   3  -2   10.64    1.07
   5   3   2   11.73    0.85
   5   3   2   11.65    1.27
   5   3  -3   10.86    0.73
  -5  -3  -3   10.87    1.44
  -5  -3  -3   11.28    1.22
  -5  -3  -3   12.84    1.48
   5  -3   3   10.21    1.13
  -5  -3  -3   10.06    1.02
  -5   3  -3   11.42    1.41
  -5   3  -3   11.37    1.23
  -5   3  -3    9.98    1.99
   5   3   3   10.23    1.10
  -5   3  -3   12.25    1.59
  -5   3  -3   10.47    1.01
   5  -3  -3   10.05    0.65
  -5   3  -3   12.41    1.34
  -5  -3  -4    5.17    1.15
   5   3  -4    7.48    0.66
  -5  -3  -4    5.05    1.07
  -5  -3  -4    6.13    0.96
  -5  -3  -4    6.24    0.95
  -5  -3  -4    5.17    1.12
   5   3  -4    7.37    0.60
  -5   3  -4    6.74    1.22
  -5   3  -4    7.89    1.32
  -5   3  -4    6.62    1.19
  -5   3  -4    7.08    0.90
  -5   3  -4    5.36    0.86
  -5  -3  -5   22.12    2.29
  -5  -3  -5   17.77    1.48
   5   3  -5   14.79    0.82
  -5  -3  -5   17.94    2.16
  -5  -3  -5   20.23    2.24
  -5  -3  -5   16.48    1.42
  -5   3  -5   14.86    1.94
  -5   3  -5   15.13    1.97
  -5   3  -5   16.25    2.09
  -5   3  -5   17.02    1.39
  -5   3  -5   20.43    1.34
  -5   3  -5   17.19    1.72
  -5  -3  -6    2.49    0.82
  -5  -3  -6    3.06    0.84
  -5  -3  -6    0.78    0.92
  -5   3  -6    3.26    0.96
  -5   3  -6    2.92    0.87
  -5   3  -6    3.79    1.28
  -5  -3  -7    0.63    0.59
  -5  -3  -7    0.08    0.51
  -5   3  -7    0.71    0.74
  -5   3  -7    0.31    0.49
   6  -3   0    7.59    1.02
  -6   3   0    6.85    0.45
  -6  -3   0    6.39    0.48
  -6   3   0    8.12    0.94
   6   3   0    6.08    0.74
   6   3   0    8.60    1.17
   6  -3   0    7.21    0.69
  -6   3   0    7.70    0.59
  -6  -3   0    9.36    1.05
  -6  -3  -1  192.86    5.59
  -6  -3  -1  190.61    5.74
   6  -3   1  188.05    5.50
  -6  -3  -1  185.36    5.87
  -6   3   1  182.18    5.30
   6  -3   1  198.18    5.99
   6   3  -1  198.94    5.30
   6  -3   1  190.33    5.45
   6  -3  -1  193.34    5.28
   6   3   1  192.70    5.46
  -6   3  -1  187.13    5.82
  -6   3  -1  193.39    5.69
  -6  -3   1  190.12    5.38
  -6   3  -1  192.96    5.90
   6   3   1  187.59    6.00
  -6  -3  -2   78.56    3.08
   6   3  -2   75.11    2.29
  -6  -3  -2   77.07    2.82
  -6  -3  -2   76.13    3.19
   6  -3   2   78.83    3.14
   6  -3   2   76.40    2.61
  -6  -3  -2   78.45    2.92
  -6  -3  -2   77.16    2.71
   6  -3   2   76.49    2.63
   6   3   2   80.53    2.69
  -6   3  -2   78.52    2.67
   6   3   2   79.01    2.66
  -6   3  -2   78.19    3.06
   6   3   2   76.54    3.15
  -6   3  -2   79.90    2.92
  -6   3  -2   74.90    3.25
  -6   3  -2   84.31    2.76
  -6   3  -2   79.71    3.21
  -6   3  -2   78.87    3.03
   6  -3  -2   76.32    2.32
  -6  -3  -3   69.10    3.34
  -6  -3  -3   64.73    2.83
  -6  -3  -3   67.90    3.10
  -6  -3  -3   68.74    2.61
   6  -3   3   71.15    2.98
  -6  -3  -3   66.16    2.95
  -6  -3  -3   74.78    2.89
   6   3   3   65.88    2.82
  -6   3  -3   68.64    2.99
  -6   3  -3   64.99    2.80
  -6   3  -3   69.05    3.19
  -6   3  -3   67.63    2.92
  -6   3  -3   66.76    3.26
   6  -3   4   14.04    1.27
   6   3  -4   11.52    0.74
   6   3  -4   11.56    1.12
  -6  -3  -4   12.49    1.24
  -6  -3  -4   14.55    2.40
  -6  -3  -4   13.56    1.79
  -6  -3  -4   15.24    1.25
  -6  -3  -4   16.46    1.85
  -6  -3  -4   14.86    2.17
  -6   3  -4   11.70    1.20
  -6   3  -4   12.07    1.54
   6   3   4   14.06    0.89
  -6   3  -4   13.01    2.01
  -6   3  -4   13.51    1.70
  -6   3  -4   12.66    1.83
  -6   3  -4   20.85    2.57
  -6  -3  -5    6.76    2.48
  -6  -3  -5    6.63    2.76
  -6  -3  -5    9.75    2.56
  -6  -3  -5    6.86    1.38
  -6  -3  -5    9.65    1.24
  -6  -3  -5   10.31    1.29
  -6   3  -5    4.74    1.14
  -6   3  -5    9.65    1.22
  -6   3  -5    2.75    2.70
  -6   3  -5    9.63    2.67
  -6   3  -5    8.90    3.04
  -6   3  -5    7.99    1.03
  -6  -3  -6    1.43    0.74
  -6  -3  -6    2.55    0.95
  -6  -3  -6    1.42    0.73
  -6   3  -6    1.95    0.86
  -6   3  -6    1.98    0.68
  -6   3  -6    2.49    0.88
  -6  -3  -7    1.95    0.83
  -6   3  -7    2.17    0.85
   7   3   0    6.49    0.70
   7  -3   0    6.68    0.69
   7   3   0    6.72    1.25
  -7   3   0    8.07    1.03
  -7  -3   0    7.13    1.02
   7  -3   0    7.81    1.26
  -7   3   0    6.27    0.95
   7  -3   1   17.60    1.12
   7   3  -1   19.17    1.01
  -7  -3  -1   15.57    1.38
  -7   3   1   18.30    1.02
  -7  -3  -1   18.82    1.10
  -7  -3  -1   20.24    1.41
  -7  -3  -1   18.32    1.48
  -7   3   1   18.09    1.44
   7  -3   1   18.84    1.09
  -7   3  -1   19.29    1.50
  -7  -3   1   19.82    1.10
   7  -3  -1   18.29    0.96
  -7   3  -1   17.71    1.31
  -7   3  -1   18.80    1.54
   7   3   1   17.70    1.06
  -7   3  -1   19.55    1.13
  -7  -3  -2    1.96    0.61
  -7  -3  -2    3.18    0.66
   7  -3   2    3.55    0.67
  -7  -3  -2    4.30    0.98
   7  -3   2    3.61    0.69
  -7  -3  -2    3.75    0.91
  -7  -3  -2    1.45    0.58
   7  -3   2    2.96    0.97
  -7  -3  -2    3.40    1.09
   7   3  -2    3.46    0.52
  -7  -3  -2    4.16    1.03
   7  -3  -2    3.54    0.53
  -7   3  -2    4.33    0.71
   7   3   2    2.68    0.86
  -7   3  -2    3.07    0.96
   7   3   2    3.71    0.67
   7   3   2    2.97    0.61
  -7   3  -2    3.90    1.17
  -7   3  -2    4.59    1.12
  -7   3  -2    4.80    0.85
  -7  -3  -3   23.38    2.09
  -7  -3  -3   21.95    3.01
   7   3  -3   16.69    0.92
  -7  -3  -3   17.65    1.96
  -7  -3  -3   15.50    1.53
  -7  -3  -3   16.60    1.38
  -7  -3  -3   18.23    1.22
  -7  -3  -3   16.62    1.25
   7  -3   3   15.51    1.67
   7   3   3   16.59    1.53
  -7   3  -3   17.09    2.49
  -7   3  -3   17.47    1.23
  -7   3  -3   18.73    1.49
  -7   3  -3   15.34    1.83
  -7   3  -3   17.47    1.93
  -7   3  -3   18.49    1.31
  -7   3  -3   16.39    1.48
   7  -3  -3   17.46    0.92
  -7  -3  -4   48.51    2.58
  -7  -3  -4   50.65    2.27
   7   3  -4   41.88    1.60
   7  -3   4   50.14    2.15
  -7  -3  -4   47.79    3.17
  -7  -3  -4   44.51    2.97
  -7  -3  -4   47.96    3.42
  -7  -3  -4   48.61    2.64
  -7  -3  -4   50.34    2.23
  -7   3  -4   51.86    3.34
  -7   3  -4   45.55    2.53
  -7   3  -4   45.07    2.11
  -7   3  -4   47.39    3.45
  -7   3  -4   50.83    2.23
   7   3   4   48.50    2.04
  -7   3  -4   50.42    3.33
  -7   3  -4   48.68    2.67
  -7  -3  -5    8.47    1.60
  -7  -3  -5    3.98    1.07
  -7  -3  -5    6.14    0.94
  -7  -3  -5    6.26    1.05
  -7   3  -5    5.75    0.87
  -7   3  -5    7.17    1.20
  -7   3  -5    3.91    0.96
  -7   3  -5    6.18    1.57
  -7  -3  -6    3.59    1.18
  -7  -3  -6    1.42    0.61
  -7  -3  -6    0.95    0.77
  -7   3  -6    1.00    0.79
  -7   3  -6    1.04    0.56
  -7   3  -6   -0.20    1.10
  -8   3   0   21.88    1.44
   8  -3   0   20.41    2.01
   8  -3   0   20.54    1.17
  -8   3   0   23.16    1.51
   8   3   0   24.15    2.00
   8   3   0   20.96    1.18
  -8  -3   0   20.57    1.50
  -8  -3  -1   20.29    1.55
   8   3  -1   21.37    1.17
   8  -3   1   19.64    1.22
  -8   3   1   20.61    1.09
   8  -3   1   19.92    1.26
  -8  -3  -1   19.94    1.53
   8  -3   1   21.05    1.80
  -8   3   1   21.83    1.60
   8   3   1   19.96    1.86
  -8   3  -1   20.22    1.11
   8   3   1   21.03    1.23
   8  -3  -1   22.52    1.16
  -8  -3   1   20.09    1.09
  -8   3  -1   21.88    1.68
  -8  -3  -2    9.35    1.49
   8   3  -2    7.96    0.79
  -8  -3  -2    5.81    1.31
   8  -3   2    7.64    1.35
   8  -3   2    8.72    1.00
  -8  -3  -2    8.27    1.22
   8  -3   2    8.27    1.02
   8   3   2    7.87    0.94
   8  -3  -2    8.47    0.81
  -8   3  -2    8.83    1.21
  -8   3  -2    7.98    1.18
   8   3   2    7.53    0.92
  -8   3  -2    3.91    1.47
   8   3   2    8.90    1.49
  -8   3  -2    8.04    1.39
   8  -3   3   24.93    1.93
  -8  -3  -3   22.11    2.30
  -8  -3  -3   25.27    2.13
  -8  -3  -3   22.65    1.48
  -8  -3  -3   25.15    1.68
  -8  -3  -3   22.81    1.80
  -8   3  -3   24.97    1.51
  -8   3  -3   27.53    2.33
  -8   3  -3   23.29    1.84
  -8   3  -3   25.62    1.75
   8   3   3   24.54    1.91
  -8   3  -3   30.93    2.91
   8   3  -4    7.96    0.75
  -8  -3  -4    6.43    1.26
  -8  -3  -4    8.17    1.90
  -8  -3  -4    6.78    0.99
  -8  -3  -4    5.07    1.22
  -8  -3  -4    6.74    2.09
  -8   3  -4   10.54    2.32
  -8   3  -4    6.36    1.40
  -8   3  -4    6.92    1.25
  -8   3  -4    9.55    1.08
  -8   3  -4    8.50    1.84
  -8  -3  -5    0.28    1.02
  -8  -3  -5   -0.59    0.67
  -8  -3  -5   -0.89    1.88
  -8  -3  -5   -0.56    1.05
  -8  -3  -5   -1.79    1.13
  -8   3  -5   -0.75    1.04
  -8   3  -5   -0.25    0.80
  -8   3  -5    0.13    1.24
  -8   3  -5    0.94    1.95
  -8   3  -5   -0.57    0.63
  -8  -3  -6    1.12    0.65
  -8  -3  -6    0.60    0.94
  -8   3  -6    0.44    0.70
  -8   3  -6    0.25    0.63
   9   3   0    4.47    0.71
   9  -3   0    9.21    1.83
   9  -3   0    5.78    0.84
   9  -3   0    6.54    0.95
   9   3   0    7.72    1.68
  -9   3   0    6.67    1.19
  -9   3   0    5.75    0.99
  -9  -3   0    6.17    1.01
  -9  -3  -1   12.87    1.49
   9  -3   1   12.80    1.11
   9  -3   1   14.64    1.99
  -9  -3  -1   12.92    0.75
  -9   3   1   16.30    1.57
  -9  -3  -1   16.64    1.59
  -9   3  -1   12.07    0.62
  -9   3  -1   11.74    1.36
  -9  -3   1   14.01    0.85
   9   3   1   15.69    2.07
  -9   3  -1   13.03    1.48
  -9  -3  -2   41.90    2.52
   9  -3   2   41.49    2.02
   9  -3   2   43.59    2.00
   9  -3   2   42.98    2.76
  -9  -3  -2   43.34    2.28
  -9  -3  -2   40.70    1.98
   9   3  -2   44.51    1.84
   9   3   2   46.16    2.13
   9   3   2   46.42    2.84
  -9   3  -2   48.03    2.61
  -9   3  -2   46.53    2.42
   9   3   2   43.67    2.08
   9  -3  -2   44.52    1.88
  -9  -3  -3   15.49    1.64
   9   3  -3   12.52    1.08
  -9  -3  -3   16.53    2.18
   9  -3   3   11.89    1.71
  -9  -3  -3   12.17    1.39
   9   3   3   11.65    1.63
  -9   3  -3   14.93    1.95
   9  -3  -3   15.98    1.11
  -9   3  -3   12.38    1.37
  -9   3  -3   13.31    1.93
  -9  -3  -4    0.80    1.27
   9   3  -4    0.76    0.70
  -9  -3  -4    0.26    0.87
   9  -3   4    1.87    1.00
  -9  -3  -4    0.33    0.80
  -9   3  -4    0.98    0.90
   9   3   4    0.34    0.92
   9  -3  -4    1.94    0.81
  -9   3  -4    0.45    1.45
  -9   3  -4   -0.46    0.86
  -9   3  -4    0.42    0.79
  -9  -3  -5    0.31    0.74
  -9  -3  -5    0.86    2.00
  -9   3  -5   -0.77    0.69
  -9   3  -5   -0.30    1.73
  -9   3  -5    0.84    1.92
  -9  -3  -6    3.82    0.94
  -9   3  -6    2.47    0.64
  10   3   0    0.63    1.58
  10  -3   0    0.28    1.68
 -10   3   0    1.37    0.94
  10  -3   0    0.58    0.59
  10   3   0    0.40    0.45
 -10   3   0   -0.25    0.69
  10  -3   0    0.97    0.56
  10  -3   1   11.14    1.35
  10  -3   1   11.69    1.79
  10   3  -1    8.75    1.02
  10  -3   1   11.75    1.28
 -10  -3  -1    8.35    1.43
 -10  -3  -1   11.84    1.62
 -10   3  -1   14.52    1.60
  10  -3  -1   13.18    1.13
 -10   3  -1    9.12    1.44
  10   3   1   13.85    2.01
  10   3   1   14.31    1.28
 -10  -3  -2   -0.88    0.84
  10  -3   2    0.38    0.70
  10  -3   2    0.14    0.83
  10   3  -2    0.38    0.54
  10  -3   2   -0.04    1.18
 -10  -3  -2    0.11    0.60
  10   3   2    0.28    0.76
 -10   3  -2    0.78    0.56
  10  -3  -2    0.47    0.50
  10   3   2   -1.27    1.02
 -10   3  -2    2.85    1.93
 -10   3  -2    1.43    0.82
  10   3   2    0.02    0.75
 -10  -3  -3    3.16    1.26
 -10  -3  -3    1.85    0.93
  10   3  -3    4.92    0.77
 -10   3  -3    3.62    0.98
  10  -3  -3    3.40    1.03
 -10   3  -3    4.37    1.34
  10  -3  -3    5.59    0.82
  10   3   3    6.10    1.91
  10   3  -4    8.01    0.95
 -10  -3  -4    3.91    0.96
  10  -3   4    7.28    1.44
 -10  -3  -4    4.57    1.01
 -10  -3  -4    4.23    1.46
 -10   3  -4    7.35    1.59
  10   3   4    5.06    1.73
 -10   3  -4    8.57    1.94
  10  -3  -4    5.71    0.93
 -10   3  -4    4.77    1.09
 -10  -3  -5    1.34    0.70
 -10  -3  -5    1.83    1.31
 -10   3  -5    0.62    0.78
 -10   3  -5    0.99    1.24
  11   3   0   12.85    2.67
  11  -3   0   14.39    1.33
 -11  -3   0   14.19    1.32
  11   3   0   14.84    1.30
  11  -3   0   15.75    1.35
  11  -3   0   16.45    2.87
 -11   3   0   18.99    1.93
 -11   3   0   15.92    1.26
  11  -3   1    7.89    1.80
  11  -3   1    4.17    2.06
  11   3  -1    7.33    1.31
  11  -3   1    5.39    0.95
 -11  -3  -1    8.00    1.34
  11   3   1    5.63    1.00
  11   3   1    4.32    1.21
 -11   3  -1    6.32    1.25
  11  -3  -1    7.08    1.52
  11  -3  -1    5.35    0.99
 -11   3  -1    7.41    1.29
  11   3   1    8.50    2.86
 -11  -3  -2   10.56    1.47
  11  -3   2   15.84    2.31
  11   3  -2   14.15    1.21
  11  -3   2   17.52    1.49
  11  -3   2   12.07    1.42
 -11  -3  -2   11.91    1.60
 -11   3  -2   11.43    1.60
  11  -3  -2   14.95    1.44
  11   3   2   14.86    1.46
  11   3   2   17.86    1.68
  11  -3  -2   15.17    1.29
  11   3   2   12.95    2.05
 -11  -3  -3    5.56    1.22
  11   3  -3    5.92    0.85
 -11  -3  -3    7.20    2.07
  11  -3   3    6.36    1.50
 -11   3  -3    8.39    2.32
 -11   3  -3    5.90    1.67
  11  -3  -3    8.46    1.20
  11   3   3    7.73    1.50
  11  -3  -3    7.51    1.00
  11   3  -4    2.22    0.89
 -11  -3  -4    0.93    1.09
 -11  -3  -4    1.53    0.92
 -11   3  -4    1.43    0.86
 -11   3  -4    2.73    1.22
 -11  -3  -5   -1.23    1.26
 -11   3  -5    2.20    1.23
  12   3   0   12.45    1.33
  12   3   0    9.34    1.19
  12  -3   0   10.52    1.26
  12  -3   0   17.89    4.13
  12   3   0   16.55    3.12
  12  -3   0   14.20    1.47
  12  -3   1    1.41    0.85
  12  -3   1    0.73    0.65
 -12  -3  -1    1.41    0.90
  12  -3   1    0.39    1.68
  12   3  -1    1.59    0.73
  12  -3  -1    1.52    0.78
  12   3   1    0.79    0.67
  12  -3  -1    0.70    0.72
  12   3   1    0.81    0.77
  12   3   1    1.56    1.82
  12   3  -2    0.56    0.63
  12  -3   2   -0.31    0.79
 -12  -3  -2    0.85    1.06
  12  -3   2   -1.97    1.45
  12  -3   2   -1.06    1.43
 -12   3  -2    0.08    0.80
  12   3   2   -0.12    0.83
  12  -3  -2    0.17    0.61
 -12   3  -2   -0.64    0.97
  12  -3  -2   -0.27    0.70
  12   3   2    1.11    1.41
  12   3  -3    4.12    0.83
 -12  -3  -3    3.46    1.07
  12  -3  -3    5.51    1.06
 -12   3  -3    3.97    1.04
 -12   3  -3    3.91    0.93
  12  -3  -3    5.14    0.85
 -12  -3  -4    0.70    0.97
 -12   3  -4   -0.45    0.71
 -12   3  -4    2.54    1.00
  13   3   0   18.94    1.45
  13   3   0   20.28    1.57
  13  -3   0   20.11    1.66
  13  -3   0   17.51    1.41
  13  -3   1   13.14    1.29
  13   3  -1   12.71    1.23
 -13  -3  -1   11.90    1.08
  13  -3   1   13.19    1.51
  13   3  -1   10.12    1.16
  13   3   1    8.30    1.08
  13  -3  -1   13.59    1.37
  13  -3  -1   12.67    1.29
 -13   3  -1   11.50    1.06
  13   3   1   16.07    1.59
 -13  -3  -2    5.31    1.03
  13  -3   2    3.41    1.28
  13   3  -2    6.13    0.93
  13   3  -2    8.29    1.06
 -13   3  -2    4.21    0.97
  13  -3  -2    5.17    0.86
 -13   3  -2    3.96    1.16
  13  -3  -2    5.11    0.93
 -13  -3  -3    2.18    0.82
  13   3  -3    2.07    0.83
 -13   3  -3    1.47    1.13
 -13   3  -3    0.75    0.85
  13  -3  -3    1.65    0.82
  14   3   0    2.75    0.85
  14   3   0    1.90    0.96
  14  -3   0    1.02    0.93
  14  -3   0    3.82    0.85
  14   3  -1   -0.03    0.73
  14   3  -1    0.87    0.62
  14  -3   1    1.81    0.72
  14  -3  -1    0.92    0.64
  14   3   1    1.21    0.74
  14  -3  -1   -0.30    0.73
  14   3  -2    2.51    0.69
  14  -3  -2    2.37    0.67
   0   4   0   34.75    1.13
   0   4   0   34.50    1.19
   0   4   0   35.33    1.22
   0  -4   0   35.44    1.16
   0   4   1    2.65    0.36
   0  -4  -1    2.46    0.39
   0   4   1    2.92    0.39
   0   4  -1    2.36    0.35
   0  -4  -1    1.89    0.31
   0   4  -1    2.93    0.42
   0   4  -2    0.04    0.33
   0  -4  -2   -0.15    0.32
   0   4  -2    0.06    0.27
   0  -4  -2   -0.17    0.27
   0   4  -3    5.76    0.64
   0  -4  -3    7.17    0.79
   0  -4  -3    6.44    0.67
   0  -4  -3    7.00    0.66
   0   4  -3    6.46    0.77
   0   4  -3    6.72    0.61
   0  -4  -4   17.13    1.64
   0   4  -4   19.12    1.19
   0  -4  -4   17.96    1.12
   0   4  -4   18.32    1.06
   0  -4  -4   18.06    1.39
   0   4  -4   18.86    1.33
   0  -4  -4   16.37    1.10
   0   4  -4   16.16    1.28
   0   4  -5   15.97    1.15
   0  -4  -5   15.26    1.45
   0   4  -5   17.85    1.74
   0  -4  -5   14.66    1.30
   0   4  -5   14.49    1.33
   0  -4  -5   14.13    1.22
   0   4  -5   15.92    1.47
   0  -4  -5   17.55    1.71
   0  -4  -6   11.94    1.44
   0   4  -6   12.49    1.00
   0  -4  -6    8.90    1.73
   0   4  -6    9.40    1.87
   0   4  -6   10.43    1.45
   0  -4  -6   11.87    1.42
   0   4  -6   12.10    1.22
   0  -4  -6   13.69    1.22
   0   4  -6   11.40    1.48
   0  -4  -7   -0.90    0.59
   0  -4  -7   -0.30    0.72
   0   4  -7    0.52    0.66
   0   4  -7   -0.13    0.58
  -1  -4  -1  415.88   10.71
   1   4  -1  401.72   10.51
  -1  -4  -1  411.70   10.63
  -1  -4  -1  395.25   10.64
   1   4   1  402.59   10.66
   1   4   1  424.62   10.57
   1  -4  -1  404.69   10.54
  -1   4  -1  389.81   10.59
   1  -4  -1  417.35   10.49
  -1   4  -1  398.37   10.68
   1  -4  -1  396.80   10.50
  -1   4  -1  404.75   10.68
  -1  -4  -2  255.56    6.97
   1   4  -2  237.68    6.42
   1   4  -2  235.15    6.51
  -1  -4  -2  240.48    6.67
   1  -4  -2  229.62    6.25
   1  -4  -2  235.74    6.27
  -1   4  -2  241.97    6.77
  -1   4  -2  224.28    6.75
   1   4   2  247.08    6.25
   1  -4  -2  231.45    6.33
  -1   4  -2  233.45    6.56
  -1  -4  -3   23.20    1.21
   1   4  -3   24.69    1.17
   1   4  -3   24.29    1.07
  -1  -4  -3   24.08    1.18
   1   4  -3   23.15    0.98
  -1  -4  -3   22.14    1.28
  -1  -4  -3   21.78    1.38
  -1   4  -3   23.14    1.11
   1  -4  -3   23.32    0.95
  -1   4  -3   23.58    1.37
   1  -4  -3   23.38    1.13
  -1   4  -3   23.61    1.54
  -1   4  -3   24.04    1.25
   1  -4  -3   24.64    1.06
  -1  -4  -4   25.78    1.56
  -1  -4  -4   26.50    1.61
   1   4  -4   24.98    1.21
  -1  -4  -4   26.47    1.42
   1   4  -4   30.00    2.28
  -1  -4  -4   26.41    1.47
   1   4  -4   24.98    1.32
   1  -4  -4   26.35    1.28
  -1   4  -4   24.87    1.30
  -1   4  -4   23.81    1.48
   1  -4  -4   27.21    1.53
   1  -4  -4   25.66    1.27
  -1   4  -4   27.33    1.52
  -1   4  -4   27.17    1.64
   1   4  -5    4.99    1.04
  -1  -4  -5    3.08    0.77
  -1  -4  -5    4.75    1.10
  -1  -4  -5    3.27    0.80
  -1  -4  -5    3.73    0.98
   1   4  -5    3.89    0.70
   1   4  -5    3.08    0.81
   1   4  -5    3.00    0.95
  -1   4  -5    2.99    1.02
   1  -4  -5    2.54    0.79
   1  -4  -5    2.93    0.72
  -1   4  -5    2.78    0.66
  -1   4  -5    2.12    0.84
  -1   4  -5    3.97    0.78
   1  -4  -5    5.03    1.07
   1  -4  -5    2.99    0.75
   1   4  -6   16.25    1.78
   1   4  -6   14.24    1.05
  -1  -4  -6   11.39    1.43
  -1  -4  -6   16.91    1.50
   1   4  -6   17.65    1.41
  -1  -4  -6   21.51    2.47
  -1  -4  -6   16.11    1.39
   1  -4  -6   15.05    1.32
  -1   4  -6   17.37    1.37
  -1   4  -6   17.06    1.72
   1  -4  -6   14.79    1.53
   1  -4  -6   17.58    1.66
  -1   4  -6   16.08    1.86
  -1   4  -6   15.29    1.16
  -1   4  -6   19.15    2.60
  -1  -4  -7    2.11    1.02
   1   4  -7    4.11    0.76
  -1  -4  -7    2.93    0.80
   1   4  -7    3.91    0.92
   1  -4  -7    2.17    0.87
   1  -4  -7    2.23    0.89
  -1   4  -7    3.29    0.77
  -1   4  -7    1.95    0.82
   2   4   0 1000.00   25.82
  -2  -4  -1  384.55   10.09
  -2  -4  -1  379.06   10.17
  -2  -4  -1  381.31   10.10
  -2   4  -1  372.22    9.82
  -2   4  -1  368.23    9.72
   2  -4  -1  352.98    9.53
   2   4   1  365.30    9.81
  -2   4  -1  371.58    9.75
  -2  -4  -2   49.31    1.78
   2   4  -2   49.11    1.57
   2  -4   2   50.16    1.80
  -2  -4  -2   48.83    1.75
   2   4  -2   46.85    1.48
  -2  -4  -2   48.63    1.81
  -2   4  -2   51.40    1.86
   2  -4  -2   48.30    1.56
   2   4   2   48.23    1.67
   2   4   2   48.57    1.77
   2  -4  -2   49.77    1.50
  -2   4  -2   48.11    1.88
  -2   4  -2   52.21    1.72
   2  -4  -2   50.92    1.51
  -2  -4  -3   33.91    1.60
  -2  -4  -3   36.27    1.55
  -2  -4  -3   35.18    1.62
   2   4  -3   35.49    1.39
  -2  -4  -3   33.46    1.67
   2   4  -3   32.63    1.53
   2   4  -3   34.03    1.27
  -2  -4  -3   39.90    1.82
   2  -4  -3   36.81    1.35
  -2   4  -3   33.33    1.63
  -2   4  -3   35.75    1.78
   2  -4  -3   32.59    1.23
   2  -4  -3   35.02    1.34
  -2   4  -3   32.76    1.55
  -2   4  -3   36.17    1.47
  -2   4  -3   36.74    1.82
   2   4  -4   31.69    1.39
  -2  -4  -4   31.81    2.10
   2   4  -4   30.10    1.69
  -2  -4  -4   33.42    1.64
  -2  -4  -4   31.77    1.85
  -2  -4  -4   32.00    1.72
  -2  -4  -4   29.30    1.69
  -2   4  -4   32.52    1.81
  -2   4  -4   32.06    1.53
   2  -4  -4   31.97    1.36
  -2   4  -4   32.12    1.93
   2  -4  -4   29.85    1.56
   2  -4  -4   31.50    1.46
  -2   4  -4   30.10    1.62
  -2   4  -4   31.75    2.14
  -2  -4  -5    3.25    0.89
   2   4  -5    3.92    0.70
   2   4  -5    2.55    1.05
   2   4  -5    4.06    0.98
  -2  -4  -5    2.95    0.81
  -2  -4  -5    2.60    1.14
  -2   4  -5    3.42    1.01
   2  -4  -5    3.75    0.81
  -2   4  -5    3.17    1.43
  -2   4  -5    2.73    0.68
  -2   4  -5    3.10    0.81
   2  -4  -5    2.18    0.71
   2  -4  -5    3.40    0.73
  -2  -4  -6    6.92    1.04
  -2  -4  -6    9.56    1.29
   2   4  -6    7.99    1.19
  -2   4  -6    6.88    0.87
   2  -4  -6   10.52    2.21
  -2   4  -6    8.55    1.33
  -2   4  -6    8.37    1.12
   2  -4  -6    7.56    1.05
  -2  -4  -7    5.29    0.81
   2   4  -7    8.41    1.03
  -2  -4  -7   10.19    1.35
  -2  -4  -7    6.62    1.69
  -2   4  -7    7.66    1.37
  -2   4  -7    5.56    0.84
  -2   4  -7    9.22    1.09
   2  -4  -7    8.70    1.22
  -3  -4   0   54.21    1.79
  -3  -4   0   55.03    1.71
  -3   4   0   55.50    1.86
   3   4   0   53.43    1.94
  -3   4   0   55.65    1.76
  -3   4   0   54.34    1.71
   3   4  -1   85.56    2.53
  -3  -4  -1   85.97    2.65
   3  -4   1   86.56    2.67
  -3  -4  -1   88.83    2.82
  -3  -4  -1   81.35    2.63
  -3  -4  -1   85.44    2.63
   3   4   1   87.91    2.51
   3  -4  -1   80.27    2.46
  -3   4  -1   81.07    2.64
  -3   4  -1   86.64    2.67
  -3   4  -1   83.48    2.49
   3   4   1   85.07    2.79
  -3  -4  -2  309.53    8.76
  -3  -4  -2  311.51    8.69
  -3  -4  -2  318.22    8.86
   3  -4   2  326.21    8.77
  -3   4  -2  317.42    8.73
   3  -4  -2  307.77    8.36
   3  -4  -2  312.71    8.23
   3  -4  -2  310.42    8.34
   3   4   2  313.12    8.70
  -3   4  -2  322.36    8.72
   3   4   2  320.35    8.55
  -3   4  -2  314.03    8.86
  -3  -4  -3   87.61    3.00
  -3  -4  -3   80.36    2.88
   3   4  -3   82.35    2.56
  -3  -4  -3   82.81    3.13
   3   4  -3   81.05    2.41
   3  -4   3   82.69    2.71
  -3  -4  -3   83.02    3.01
  -3  -4  -3   78.52    2.81
  -3   4  -3   77.41    2.94
   3  -4  -3   81.33    2.42
  -3   4  -3   82.22    3.01
   3   4   3   84.06    2.58
  -3   4  -3   77.02    3.12
   3  -4  -3   81.17    2.36
  -3   4  -3   81.92    2.71
  -3   4  -3   81.23    2.82
   3  -4  -3   81.00    2.45
  -3  -4  -4    2.97    0.81
  -3  -4  -4    3.23    0.77
   3   4  -4    2.62    0.50
  -3  -4  -4    3.81    0.94
  -3  -4  -4    4.38    1.05
  -3  -4  -4    2.00    0.71
   3   4  -4    2.49    0.52
  -3   4  -4    1.87    0.61
   3  -4  -4    2.41    0.52
  -3   4  -4    2.62    0.83
  -3   4  -4    1.91    0.62
   3  -4  -4    1.98    0.38
  -3   4  -4    2.41    0.87
  -3  -4  -5   -0.24    0.81
   3   4  -5   -0.33    0.50
   3   4  -5    0.49    0.56
  -3  -4  -5    1.10    0.85
  -3  -4  -5   -0.06    0.64
  -3   4  -5    0.72    0.57
   3  -4  -5   -0.94    0.58
  -3   4  -5    1.48    1.05
   3  -4  -5   -0.02    0.44
  -3   4  -5    0.05    0.95
   3  -4  -5    0.43    1.05
  -3  -4  -6    1.42    0.77
  -3  -4  -6    1.76    0.82
   3   4  -6    1.80    0.74
   3  -4  -6    2.73    0.86
  -3   4  -6    1.41    0.69
  -3   4  -6    2.00    0.93
  -3  -4  -7    0.68    0.77
  -3  -4  -7    0.07    0.63
  -3  -4  -7    0.44    0.68
  -3   4  -7    0.00    0.75
  -3   4  -7    0.46    0.58
  -3   4  -7    0.98    0.94
   4   4   0  197.93    6.10
  -4   4   0  214.32    5.92
  -4   4   0  221.26    5.75
   4  -4   0  204.10    5.74
   4   4   0  216.84    5.77
  -4  -4   0  211.48    5.74
  -4  -4   0  219.75    5.88
  -4  -4  -1  225.15    6.31
   4  -4   1  235.78    6.29
  -4  -4  -1  230.67    6.38
  -4  -4  -1  236.17    6.53
   4  -4   1  222.54    6.59
  -4  -4  -1  232.74    6.37
   4   4  -1  225.13    6.09
   4   4   1  219.27    6.58
  -4   4  -1  232.58    6.44
   4  -4  -1  226.73    6.28
  -4   4  -1  229.34    6.38
   4   4   1  222.32    6.21
  -4   4  -1  238.29    6.60
   4   4  -2  118.62    3.65
   4  -4   2  134.78    3.87
  -4  -4  -2  122.31    5.03
  -4  -4  -2  123.20    3.88
  -4  -4  -2  111.00    3.75
   4  -4   2  126.38    4.00
  -4  -4  -2  118.80    3.83
  -4   4  -2  124.61    3.95
   4  -4  -2  126.21    3.52
  -4   4  -2  126.32    5.32
   4  -4  -2  119.81    3.63
  -4   4  -2  126.04    4.00
  -4   4  -2  124.54    3.80
   4   4   2  123.52    4.03
  -4  -4  -3   38.69    1.88
   4   4  -3   41.74    1.41
  -4  -4  -3   43.08    1.87
  -4  -4  -3   44.63    2.01
   4  -4   3   42.04    1.88
   4   4  -3   42.33    1.51
  -4  -4  -3   45.22    2.02
   4  -4  -3   41.81    1.37
  -4   4  -3   42.78    1.85
  -4   4  -3   39.98    2.07
  -4   4  -3   44.31    2.10
   4   4   3   45.57    1.88
  -4   4  -3   44.83    2.10
   4  -4  -3   42.52    1.46
  -4   4  -3   42.03    1.74
  -4  -4  -4   12.71    1.53
  -4  -4  -4   11.52    1.34
   4   4  -4   11.93    0.80
  -4  -4  -4   13.11    1.14
   4   4  -4   11.50    0.94
  -4  -4  -4   14.97    1.60
  -4  -4  -4   12.36    1.22
   4  -4  -4   11.26    0.70
  -4   4  -4   13.19    1.46
  -4   4  -4   11.56    1.11
  -4   4  -4   15.28    1.67
  -4   4  -4   13.12    1.52
  -4   4  -4   15.32    1.75
  -4   4  -4   12.74    1.01
   4   4  -5    9.86    0.82
  -4  -4  -5    9.26    1.68
  -4  -4  -5    7.73    1.36
   4   4  -5   10.76    1.10
  -4  -4  -5   11.06    1.78
   4   4  -5    9.06    0.92
  -4  -4  -5   10.57    1.32
  -4  -4  -5    8.04    1.15
  -4   4  -5   10.51    1.77
  -4   4  -5    8.07    1.48
  -4   4  -5    9.26    1.06
  -4   4  -5    7.74    1.56
   4  -4  -5    8.25    1.00
  -4   4  -5   10.62    1.54
  -4   4  -5    9.29    1.19
  -4  -4  -6   10.82    1.66
   4   4  -6    7.98    0.98
  -4  -4  -6    6.34    1.05
  -4   4  -6    4.99    1.06
  -4   4  -6    7.82    1.15
   4  -4  -6    5.85    1.05
  -4   4  -6    6.53    1.26
  -4  -4  -7    2.42    0.75
  -4   4  -7    6.23    1.24
  -4   4  -7    6.20    0.78
   5   4   0    6.92    0.63
  -5  -4   0    6.86    0.56
  -5   4   0    7.19    0.80
   5  -4   0    6.22    0.59
   5   4   0    7.07    0.99
   5  -4   1   83.23    3.02
  -5  -4  -1   83.21    2.60
   5   4  -1   81.20    2.45
  -5  -4  -1   82.35    2.69
  -5  -4  -1   82.76    2.73
  -5  -4  -1   81.94    2.87
  -5   4  -1   87.43    2.81
   5  -4  -1   84.38    2.49
  -5   4  -1   86.82    3.02
   5   4   1   79.48    3.04
  -5   4  -1   83.14    2.86
   5  -4   2   12.71    1.18
   5   4  -2   11.87    0.91
  -5  -4  -2   12.23    1.05
  -5  -4  -2   11.55    0.99
   5  -4   2   11.35    0.91
  -5  -4  -2   12.95    0.95
  -5  -4  -2   13.61    1.22
  -5  -4  -2   15.45    1.68
   5  -4  -2   11.05    0.58
   5   4   2   12.53    1.17
  -5   4  -2   12.08    1.32
  -5   4  -2   11.91    1.01
  -5   4  -2   13.33    0.93
  -5   4  -2   11.43    1.13
   5  -4  -2   11.30    0.86
  -5   4  -2   15.36    1.63
  -5   4  -2   12.11    1.20
  -5   4  -2   12.13    0.86
  -5  -4  -3   26.48    1.62
  -5  -4  -3   28.08    1.70
   5   4  -3   25.00    1.03
  -5  -4  -3   24.70    2.15
   5  -4   3   26.75    1.63
  -5  -4  -3   27.09    1.52
  -5  -4  -3   23.87    1.69
  -5   4  -3   27.52    1.72
   5  -4  -3   24.12    1.14
  -5   4  -3   31.93    2.68
  -5   4  -3   25.43    2.80
  -5   4  -3   24.46    1.58
  -5   4  -3   28.08    1.31
   5   4   3   25.11    1.54
  -5   4  -3   27.65    1.89
  -5   4  -3   24.57    1.43
  -5  -4  -4   47.96    2.20
  -5  -4  -4   46.57    2.22
  -5  -4  -4   38.44    2.60
   5   4  -4   47.15    1.66
   5   4  -4   47.80    1.76
  -5  -4  -4   45.15    2.47
  -5   4  -4   48.42    2.21
  -5   4  -4   46.06    2.93
  -5   4  -4   48.41    2.53
  -5   4  -4   48.95    2.04
  -5   4  -4   49.46    2.67
  -5  -4  -5   -0.05    0.61
  -5  -4  -5    2.05    1.19
   5   4  -5    0.71    0.58
  -5  -4  -5    0.44    0.88
  -5  -4  -5    0.85    1.11
  -5  -4  -5    1.58    1.27
  -5   4  -5   -0.19    1.25
  -5   4  -5    0.38    0.81
  -5   4  -5    0.26    0.58
  -5   4  -5    1.68    1.27
  -5  -4  -6    1.37    0.86
  -5  -4  -6    0.66    0.67
  -5   4  -6    0.03    0.55
  -5   4  -6    1.51    0.76
  -5   4  -6   -0.07    1.16
  -5  -4  -7    0.84    0.63
  -5  -4  -7    0.40    0.58
  -5   4  -7    1.26    0.54
  -5   4  -7   -0.37    0.64
  -5   4  -7    1.36    0.60
  -6   4   0   13.06    1.09
  -6  -4   0   14.48    0.70
  -6   4   0   12.57    0.74
  -6   4   0   14.22    0.63
  -6  -4   0   15.59    1.14
   6  -4   0   13.45    0.83
   6   4   0   13.53    1.28
   6   4   0   14.14    0.87
  -6   4   0   13.11    1.17
   6  -4   1    7.05    0.80
  -6  -4  -1    5.24    0.80
  -6   4   1    7.06    0.95
  -6   4   1    8.13    0.87
  -6  -4  -1    6.29    0.85
   6  -4   1    5.69    0.98
  -6  -4  -1    5.56    0.71
  -6  -4  -1    5.23    1.00
   6   4  -1    7.15    0.67
   6  -4   1    5.05    0.65
  -6   4  -1    6.99    0.93
   6   4   1    6.82    1.06
  -6  -4   1    6.44    0.86
  -6   4  -1    4.46    0.87
   6   4   1    5.78    0.72
  -6   4  -1    4.47    0.79
  -6   4  -1    8.29    1.14
  -6   4  -1    5.53    0.75
   6  -4  -1    5.58    0.56
  -6  -4  -2   44.16    2.32
   6  -4   2   42.36    1.74
  -6  -4  -2   43.84    2.04
  -6  -4  -2   45.26    1.82
  -6  -4  -2   42.97    1.85
   6  -4   2   44.85    2.24
  -6  -4  -2   41.97    1.91
   6  -4   2   42.13    1.77
  -6  -4  -2   42.39    2.12
   6   4  -2   43.41    1.49
   6   4   2   42.86    2.24
  -6   4  -2   44.34    2.33
  -6   4  -2   43.74    2.24
  -6   4  -2   44.60    1.80
  -6   4  -2   48.63    2.19
  -6   4  -2   44.53    2.18
  -6   4  -2   45.66    2.02
   6   4   2   43.69    1.79
   6  -4  -2   44.05    1.51
  -6  -4  -3    0.71    0.65
  -6  -4  -3   -0.28    0.51
   6   4  -3    1.19    0.41
   6  -4   3   -0.06    0.66
  -6  -4  -3    1.07    0.82
  -6  -4  -3   -0.31    0.74
  -6  -4  -3    0.32    1.11
  -6   4  -3    0.32    0.61
  -6   4  -3   -0.29    0.71
  -6   4  -3    0.61    0.60
  -6   4  -3    0.75    0.80
  -6   4  -3    3.12    1.22
  -6   4  -3    0.68    0.55
  -6   4  -3    0.94    0.94
   6   4   3    0.26    0.65
  -6  -4  -4   28.55    2.65
  -6  -4  -4   23.93    1.90
  -6  -4  -4   23.45    2.23
  -6  -4  -4   24.75    1.58
   6   4  -4   21.19    1.24
  -6  -4  -4   30.27    3.11
  -6  -4  -4   23.70    1.60
  -6   4  -4   19.84    1.45
  -6   4  -4   24.73    3.36
  -6   4  -4   23.72    2.71
  -6   4  -4   24.67    1.58
  -6   4  -4   22.92    1.91
  -6   4  -4   27.41    1.91
  -6   4  -4   29.03    2.44
  -6  -4  -5   18.05    2.43
  -6  -4  -5   26.46    1.70
  -6  -4  -5   20.14    1.57
  -6  -4  -5   16.67    2.18
  -6   4  -5   20.60    3.10
  -6   4  -5   25.92    1.60
  -6   4  -5   21.19    3.45
  -6   4  -5   24.61    1.65
  -6   4  -5   26.67    2.87
  -6   4  -5   23.05    1.85
  -6  -4  -6   11.41    1.14
  -6  -4  -6    8.56    1.29
  -6  -4  -6   12.95    1.21
  -6   4  -6   11.79    1.09
  -6   4  -6   14.55    1.39
  -6   4  -6   11.08    1.36
  -6  -4  -7    5.86    0.89
  -6   4  -7    2.30    0.63
   7  -4   0   58.10    2.13
   7   4   0   61.65    2.91
  -7   4   0   59.89    2.40
   7  -4   0   63.09    2.80
  -7  -4   0   57.87    2.40
  -7   4   0   55.10    2.40
   7   4   0   61.23    2.18
   7  -4   1    8.84    0.84
  -7  -4  -1    7.49    1.14
   7  -4   1    5.50    1.09
  -7  -4  -1    6.67    0.77
  -7   4   1    8.38    1.13
   7   4  -1    8.63    0.74
   7  -4   1    9.20    0.91
  -7   4   1    7.20    0.79
  -7  -4  -1    9.38    1.14
  -7   4  -1    6.71    0.77
   7   4   1    6.49    0.76
  -7   4  -1    5.23    1.07
  -7  -4   1    8.39    0.83
  -7   4  -1    7.28    1.05
   7   4   1    8.43    1.43
  -7   4  -1    7.97    1.08
   7  -4  -1    7.50    0.66
  -7  -4  -2   55.25    2.23
  -7  -4  -2   51.74    2.63
  -7  -4  -2   47.18    2.32
   7   4  -2   47.50    1.79
  -7  -4  -2   45.71    2.38
  -7  -4  -2   50.45    2.03
   7  -4   2   50.45    2.17
  -7  -4  -2   53.87    2.56
  -7  -4  -2   49.83    2.17
   7  -4   2   52.76    2.64
   7  -4   2   51.73    2.04
   7  -4  -2   50.60    1.78
   7   4   2   49.57    2.02
  -7   4  -2   46.71    1.91
  -7   4  -2   51.33    2.64
  -7   4  -2   52.74    2.41
  -7   4  -2   52.38    2.24
  -7   4  -2   52.16    2.66
   7   4   2   52.02    2.61
  -7   4  -2   47.72    2.48
   7   4  -3    6.45    0.68
  -7  -4  -3    6.37    1.09
  -7  -4  -3    7.64    1.57
  -7  -4  -3    6.30    1.32
   7  -4   3    6.20    1.13
  -7  -4  -3    6.92    1.00
  -7  -4  -3    4.31    1.18
  -7  -4  -3    8.89    1.33
  -7  -4  -3    6.65    0.91
  -7   4  -3    6.79    1.11
  -7   4  -3    5.40    0.85
  -7   4  -3    6.03    0.83
   7   4   3    5.82    1.14
  -7   4  -3    5.48    1.38
  -7   4  -3    6.39    1.47
   7  -4  -3    7.30    0.69
  -7   4  -3    5.68    0.98
  -7   4  -3    7.70    1.59
   7   4  -4   10.22    0.89
  -7  -4  -4    9.31    1.75
   7  -4   4    9.54    1.08
  -7  -4  -4   17.84    3.14
  -7  -4  -4    9.06    1.05
  -7  -4  -4   11.41    1.92
  -7  -4  -4   10.32    1.45
  -7  -4  -4   14.00    1.34
   7   4  -4   10.80    0.92
  -7  -4  -4   10.01    1.48
  -7   4  -4   11.37    1.12
  -7   4  -4   14.06    1.38
  -7   4  -4    8.35    1.84
  -7   4  -4    9.03    1.33
  -7   4  -4   12.10    2.23
  -7   4  -4   13.35    1.62
   7   4   4   10.69    1.01
  -7  -4  -5    2.08    0.97
  -7  -4  -5    0.60    0.66
  -7  -4  -5    0.73    1.20
  -7  -4  -5    1.02    0.82
  -7   4  -5    2.62    0.90
  -7   4  -5    3.13    1.29
  -7   4  -5    0.94    0.70
  -7   4  -5    2.52    0.89
  -7  -4  -6    1.93    0.85
  -7  -4  -6    3.40    0.84
  -7   4  -6    1.82    0.77
  -7   4  -6    0.79    0.64
  -7   4  -6    2.45    0.89
  -8  -4   0    1.56    0.72
   8  -4   0    1.26    0.47
   8  -4   0   -0.33    1.01
  -8   4   0    1.25    0.74
   8   4   0    0.79    0.44
  -8   4   0    1.30    0.71
   8   4   0    1.92    1.07
  -8   4   1   40.79    2.13
   8  -4   1   45.72    2.61
  -8  -4  -1   42.40    2.21
   8  -4   1   45.36    1.94
   8   4  -1   43.60    1.78
  -8  -4  -1   41.25    2.13
   8  -4   1   42.30    1.87
  -8   4   1   43.27    1.65
   8   4   1   41.11    1.83
  -8   4  -1   42.11    2.14
  -8   4  -1   43.27    1.71
  -8   4  -1   40.67    2.25
   8  -4  -1   41.73    1.71
   8   4   1   43.90    2.52
   8  -4   2   18.60    1.27
   8  -4   2   19.46    1.28
  -8  -4  -2   19.25    1.78
  -8  -4  -2   17.92    1.49
  -8  -4  -2   18.04    1.32
   8   4  -2   20.24    1.51
  -8  -4  -2   21.31    2.15
  -8   4  -2   18.51    1.37
  -8   4  -2   19.27    1.84
  -8   4  -2   28.02    2.55
   8   4   2   20.38    1.32
  -8   4  -2   15.29    1.45
   8  -4  -2   18.63    1.07
  -8   4  -2   17.80    1.55
   8   4   2   20.85    1.27
   8   4  -3   62.99    2.25
   8  -4   3   67.60    3.21
  -8  -4  -3   65.30    2.81
  -8  -4  -3   60.80    2.49
  -8  -4  -3   64.45    2.96
  -8  -4  -3   61.22    3.24
  -8  -4  -3   73.71    3.68
  -8   4  -3   68.94    3.48
  -8   4  -3   64.64    2.89
  -8   4  -3   61.96    2.65
  -8   4  -3   58.10    2.38
   8  -4  -3   69.34    2.28
   8   4   3   64.74    3.09
  -8   4  -3   62.79    3.72
  -8   4  -3   65.57    3.00
  -8  -4  -4   11.87    1.44
  -8  -4  -4   21.03    2.58
   8   4  -4   13.54    1.09
  -8  -4  -4   13.33    1.57
  -8  -4  -4   13.33    1.27
  -8  -4  -4    9.07    2.12
   8  -4   4   15.66    1.42
   8   4   4   16.14    1.43
  -8   4  -4   12.37    1.49
  -8   4  -4   12.62    2.53
  -8   4  -4   16.15    1.72
  -8   4  -4   15.28    1.24
  -8   4  -4   14.80    2.11
  -8  -4  -5    4.20    2.04
  -8  -4  -5    1.83    1.29
  -8  -4  -5    2.42    1.19
  -8  -4  -5    4.17    0.82
  -8   4  -5    5.52    0.84
  -8   4  -5    3.95    0.96
  -8   4  -5    8.08    2.34
  -8   4  -5    4.37    1.33
  -8  -4  -6    1.23    0.71
  -8   4  -6    0.81    0.67
  -8   4  -6   -0.54    0.64
  -9   4   0    2.21    0.86
   9  -4   0    2.13    1.39
  -9  -4   0    1.79    0.71
  -9   4   0    0.87    0.67
   9   4   0    0.17    1.20
   9  -4   0    1.60    0.60
   9  -4   1    5.86    1.54
   9   4  -1    4.41    0.71
  -9   4   1    7.97    1.24
   9  -4   1    5.82    0.84
  -9  -4  -1    4.37    0.49
  -9   4   1    5.97    0.63
  -9  -4  -1    5.55    1.14
   9  -4   1    4.79    0.82
   9   4   1    4.01    0.71
  -9   4  -1    4.38    0.28
  -9   4  -1    5.27    1.05
   9   4   1    5.76    1.62
  -9   4  -1    7.09    1.26
  -9  -4   1    6.82    0.69
   9  -4  -1    4.37    0.73
   9  -4   2   28.05    1.63
  -9  -4  -2   26.85    1.59
   9  -4   2   26.99    2.29
  -9  -4  -2   28.32    2.08
  -9  -4  -2   30.97    1.91
   9  -4   2   27.94    1.65
   9   4  -2   30.14    1.49
  -9   4  -2   27.94    1.91
   9   4   2   29.52    1.70
  -9   4  -2   27.95    2.14
   9   4   2   32.49    2.34
   9   4   2   31.39    1.69
  -9   4  -2   31.14    1.80
   9  -4  -2   30.34    1.50
   9   4  -3   24.72    1.37
  -9  -4  -3   27.91    1.80
   9  -4   3   26.36    2.17
  -9   4  -3   26.07    1.82
  -9   4  -3   22.89    1.73
  -9   4  -3   26.80    2.33
   9   4   3   23.87    2.02
   9  -4  -3   26.32    1.39
   9  -4   4    8.34    1.26
  -9  -4  -4    7.87    1.23
   9   4  -4    8.89    1.00
  -9  -4  -4    6.28    1.58
  -9  -4  -4    7.75    1.25
   9   4   4    9.02    1.17
   9  -4  -4    9.37    1.02
  -9   4  -4    7.07    1.15
  -9   4  -4    8.05    1.35
  -9   4  -4    9.70    1.81
  -9   4  -4    7.27    1.21
  -9  -4  -5    4.29    2.14
  -9   4  -5    1.72    1.30
  -9   4  -5    3.14    0.92
  -9  -4  -6    0.81    0.68
  -9   4  -6    0.06    0.54
  10  -4   0   -0.05    0.48
  10   4   0    0.84    1.76
  10  -4   0    0.50    0.60
  10  -4   0    1.71    1.70
 -10   4   0   -0.10    0.77
 -10   4   0    0.36    0.69
  10   4   0    0.55    0.51
  10  -4   1    4.70    1.21
  10   4  -1    3.30    0.75
  10  -4   1    2.15    0.75
  10  -4   1    2.78    1.36
  10   4   1    4.23    1.38
  10   4   1    2.48    0.77
  10  -4  -1    2.92    0.80
 -10   4  -1    4.39    1.05
  10  -4  -1    2.69    0.71
 -10  -4  -2   16.58    1.64
 -10  -4  -2   18.46    3.01
  10  -4   2   18.19    1.61
 -10  -4  -2   19.95    1.26
  10   4  -2   20.17    1.30
  10  -4   2   20.20    2.34
 -10   4  -2   15.30    2.61
  10   4   2   17.13    2.07
  10   4   2   18.67    1.58
  10  -4  -2   19.24    1.31
 -10   4  -2   20.14    1.20
  10  -4  -2   22.64    1.65
 -10  -4  -3    5.49    1.44
 -10  -4  -3    6.03    1.36
  10   4  -3    4.41    0.77
 -10  -4  -3    5.22    1.17
  10   4  -3    5.58    0.95
  10  -4   3    5.27    1.39
  10  -4  -3    4.03    0.82
 -10   4  -3    2.94    1.04
  10   4   3    4.70    1.22
 -10   4  -3    4.59    1.44
 -10   4  -3    5.19    0.98
  10  -4  -3    4.44    1.16
  10   4  -4    0.83    0.79
 -10  -4  -4    1.41    0.97
 -10  -4  -4    2.00    1.11
 -10  -4  -4    3.29    1.37
  10  -4  -4    0.56    0.80
 -10   4  -4    1.25    0.80
 -10   4  -4    0.78    1.19
 -10   4  -4    1.78    1.08
 -10  -4  -5    4.17    0.82
 -10  -4  -5    4.86    1.52
 -10   4  -5    5.86    1.65
 -10   4  -5    3.88    1.29
 -11   4   0   -0.48    0.69
  11  -4   0    2.25    2.16
  11   4   0    0.22    1.26
 -11  -4   0    1.57    0.73
  11  -4   0   -0.06    0.63
  11   4   0   -3.18    1.87
 -11   4   0    0.49    0.99
 -11  -4  -1   30.36    2.06
  11  -4   1   33.37    3.09
  11   4  -1   32.42    2.36
  11  -4   1   31.44    1.82
  11  -4   1   28.56    2.10
  11  -4  -1   30.77    2.01
 -11   4  -1   29.87    1.98
  11   4   1   28.83    1.81
 -11   4  -1   31.61    2.12
  11   4   1   27.89    2.46
  11  -4  -1   31.02    1.81
  11   4   1   32.41    2.82
  11  -4   2    6.07    1.66
 -11  -4  -2    3.31    1.09
  11  -4   2    3.38    0.90
  11  -4   2    5.69    1.23
  11   4  -2    3.13    0.80
  11  -4  -2    4.94    0.98
  11  -4  -2    2.88    0.76
  11   4   2    3.19    1.14
 -11   4  -2    4.20    1.08
 -11   4  -2    1.78    1.07
  11   4   2    3.50    1.44
  11   4   2    4.74    1.00
  11  -4   3    1.40    1.19
 -11  -4  -3    2.81    1.29
  11   4  -3    1.91    0.73
 -11  -4  -3    1.71    1.08
  11  -4  -3    1.89    0.96
  11  -4  -3    1.51    0.75
 -11   4  -3    2.77    1.54
  11   4   3    1.55    1.16
 -11   4  -3    2.05    1.50
 -11  -4  -4    2.95    0.96
 -11  -4  -4    4.93    1.35
  11   4  -4    5.05    1.10
 -11   4  -4    2.78    1.01
 -11   4  -4    3.08    0.88
 -11  -4  -5    2.92    1.62
 -11   4  -5    1.63    0.66
  12  -4   0    5.57    1.03
  12   4   0    3.11    2.50
  12   4   0    3.44    0.95
  12  -4   0   -1.96    3.09
  12  -4   0    5.39    0.99
  12  -4   1    8.71    1.30
  12  -4   1    4.66    1.86
  12  -4   1    6.67    1.07
  12   4  -1    5.75    0.97
 -12  -4  -1    7.33    1.50
  12   4   1    3.70    1.88
  12   4   1    6.72    1.16
  12  -4  -1    9.06    1.20
  12   4   1    7.96    1.16
  12  -4  -1    8.61    1.14
  12  -4   2   11.02    1.26
  12  -4   2    2.97    1.79
  12   4  -2    7.73    1.05
  12  -4   2    8.12    1.84
  12  -4  -2   10.00    1.22
  12   4   2    9.41    1.85
 -12   4  -2    4.86    1.07
  12  -4  -2    8.68    1.06
  12   4   2    6.42    1.05
 -12  -4  -3    3.42    1.15
  12   4  -3    1.97    0.77
  12  -4  -3    4.49    0.81
 -12   4  -3    3.21    1.13
 -12  -4  -4    2.33    1.05
 -12   4  -4    0.32    0.96
 -12   4  -4    0.24    0.65
  13  -4   0    6.29    1.26
  13   4   0    7.81    1.08
  13  -4   0    5.42    0.89
  13  -4   1    1.16    0.73
  13   4  -1    1.09    0.74
  13  -4   1    1.07    0.98
  13   4  -1    1.64    0.71
 -13  -4  -1   -0.57    0.67
  13   4   1    1.14    0.98
  13  -4  -1    0.98    0.75
  13   4   1    1.48    0.79
 -13   4  -1    0.36    0.71
  13  -4  -1    1.12    0.73
 -13   4  -1    2.40    1.45
 -13  -4  -2    1.14    0.85
  13   4  -2    2.49    0.73
 -13   4  -2    2.84    0.92
 -13   4  -2    1.18    1.00
  13  -4  -2    1.34    0.73
  13  -4  -2    3.30    0.78
  13   4  -3    6.86    0.92
 -13  -4  -3    4.43    1.00
 -13   4  -3    7.28    2.10
 -13   4  -3    4.59    0.94
  13  -4  -3    6.84    1.08
  14   4   0    3.56    0.97
  14   4   0    2.15    0.85
  14  -4   0    2.13    0.71
  14  -4   0    2.61    0.98
  14   4  -1    4.79    0.80
  14   4  -1    1.98    0.84
  14  -4   1    2.71    0.72
  14  -4  -1    1.12    0.83
  14   4   1   -0.11    0.72
  14  -4  -1    3.23    0.74
  14   4  -2    4.51    0.75
  14  -4  -2    4.55    0.79
   0  -5   0    0.26    0.30
   0   5   0   -0.15    0.33
   0   5   0    0.10    0.35
   0   5   0    0.31    0.31
   0   5  -1  464.01   11.85
   0  -5  -1  458.60   11.83
   0  -5  -1  456.09   11.91
   0   5  -1  431.77   11.98
   0   5   1  460.61   11.79
   0   5   1  448.13   11.84
   0   5   1  460.70   11.87
   0   5  -2  105.83    3.08
   0   5  -2  115.10    3.48
   0  -5  -2  107.99    3.17
   0   5  -2  111.80    3.19
   0  -5  -2  102.35    3.08
   0   5  -3   38.69    1.62
   0  -5  -3   40.04    1.60
   0  -5  -3   38.30    1.69
   0   5  -3   41.37    1.75
   0   5  -3   40.16    1.49
   0  -5  -3   41.81    1.55
   0   5  -4   15.64    1.28
   0  -5  -4   15.21    1.30
   0   5  -4   14.50    1.18
   0  -5  -4   15.77    1.07
   0   5  -4   15.69    1.15
   0   5  -4   15.23    0.98
   0  -5  -4   15.62    1.18
   0  -5  -4   16.40    1.10
   0  -5  -5   11.59    1.61
   0  -5  -5   11.56    1.37
   0   5  -5   10.55    1.41
   0   5  -5   10.52    0.96
   0  -5  -5   10.02    1.30
   0   5  -5   10.71    1.73
   0   5  -5    9.17    1.08
   0   5  -5    9.37    1.41
   0  -5  -5   10.79    1.21
   0   5  -6    3.18    1.17
   0  -5  -6    1.13    0.66
   0   5  -6    2.17    0.78
   0   5  -6    1.77    1.47
   0  -5  -6    1.92    0.83
   0   5  -7    1.16    0.58
   0  -5  -7    2.42    0.76
   0   5  -7    0.61    1.01
  -1   5   0   18.47    0.79
  -1   5   0   17.77    0.87
   1  -5   0   18.55    0.87
  -1   5   0   19.09    0.87
   1   5   0   18.85    0.80
  -1  -5   0   18.74    0.82
  -1   5   1  154.46    4.10
  -1  -5  -1  144.56    4.14
   1   5  -1  146.75    4.04
  -1  -5  -1  144.91    4.11
  -1  -5  -1  145.97    4.20
   1   5  -1  150.89    4.12
   1  -5  -1  150.81    4.12
  -1   5  -1  148.05    4.23
  -1   5  -1  144.66    4.13
  -1   5  -1  143.88    4.22
   1  -5  -1  145.76    4.03
   1   5   1  150.76    4.21
   1   5   1  150.87    4.08
   1   5  -2  126.12    3.75
  -1  -5  -2  121.75    3.89
  -1  -5  -2  140.02    4.30
  -1  -5  -2  122.78    3.63
   1  -5   2  127.15    3.60
   1   5  -2  121.42    3.55
  -1   5  -2  121.06    3.86
   1  -5  -2  127.07    3.65
   1  -5  -2  125.47    3.62
  -1   5  -2  125.17    3.91
   1   5   2  134.70    3.95
   1  -5  -2  123.89    3.58
   1   5   2  127.68    3.64
  -1   5  -2  127.80    3.61
  -1  -5  -3    2.91    0.77
  -1  -5  -3    2.01    0.55
  -1  -5  -3    2.03    0.58
   1   5  -3    1.85    0.52
   1   5  -3    2.36    0.47
   1   5  -3    2.26    0.45
  -1   5  -3    2.34    0.81
   1  -5  -3    1.50    0.37
  -1   5  -3    1.81    0.53
  -1   5  -3    2.33    0.87
   1  -5  -3    1.81    0.48
   1  -5  -3    2.19    0.44
  -1   5  -3    2.00    0.64
  -1  -5  -4    8.82    1.10
  -1  -5  -4   11.02    1.08
   1   5  -4   10.71    1.12
  -1  -5  -4   10.44    1.08
   1   5  -4   10.49    1.29
   1   5  -4    9.55    0.94
  -1  -5  -4    9.52    1.01
   1   5  -4    8.50    0.79
  -1   5  -4   10.20    1.23
  -1   5  -4   10.29    1.13
   1  -5  -4    8.98    0.89
   1  -5  -4   10.47    1.06
  -1   5  -4    8.98    0.97
   1  -5  -4   10.16    0.86
  -1   5  -4   10.22    0.88
  -1  -5  -5    7.15    1.19
   1   5  -5    7.28    1.02
   1   5  -5    6.39    1.14
   1   5  -5    7.48    0.87
  -1  -5  -5    7.34    1.04
   1   5  -5    7.44    1.27
  -1   5  -5    6.22    1.78
   1  -5  -5    6.29    1.03
  -1   5  -5    8.03    1.07
   1  -5  -5    8.98    1.22
  -1   5  -5    7.94    1.25
   1  -5  -5    6.83    1.01
  -1   5  -5    6.40    0.85
   1   5  -6    4.29    0.90
  -1  -5  -6    6.47    1.10
  -1  -5  -6    5.55    1.02
  -1   5  -6    9.55    1.40
   1  -5  -6    7.60    1.25
   1  -5  -6    6.41    0.96
  -1   5  -6    6.63    0.95
  -1  -5  -7    1.17    0.77
  -1  -5  -7    1.35    0.73
   1   5  -7    0.30    0.59
   1   5  -7   -0.18    0.69
   1  -5  -7   -0.95    0.74
   1  -5  -7    1.43    0.67
  -1   5  -7    1.13    0.71
  -1   5  -7    0.91    0.79
  -2  -5  -1  143.37    4.12
  -2  -5  -1  146.17    4.21
  -2  -5  -1  145.06    4.11
  -2  -5  -1  149.63    4.13
   2   5  -1  142.07    3.98
   2   5   1  145.85    4.32
  -2   5  -1  145.28    4.22
  -2   5  -1  152.25    4.33
  -2   5  -1  146.18    4.08
  -2   5  -1  146.60    4.27
   2   5   1  150.67    4.17
   2   5  -2   59.51    2.38
  -2  -5  -2   58.36    2.10
  -2  -5  -2   59.83    2.08
  -2  -5  -2   58.30    2.19
   2  -5   2   55.08    2.05
  -2   5  -2   55.09    2.16
  -2   5  -2   57.75    2.05
   2  -5  -2   57.05    1.79
   2  -5  -2   53.59    1.81
  -2   5  -2   59.60    2.12
   2  -5  -2   52.25    1.72
   2   5   2   58.02    1.89
   2   5   2   57.83    1.99
   2   5  -3  158.08    4.42
   2   5  -3  161.94    4.69
   2   5  -3  168.63    4.57
  -2  -5  -3  158.83    5.06
  -2  -5  -3  145.91    5.21
  -2  -5  -3  165.75    4.91
  -2  -5  -3  162.89    4.82
   2  -5  -3  161.05    4.59
  -2   5  -3  159.11    5.07
   2  -5  -3  161.80    4.61
   2  -5  -3  149.52    4.33
  -2   5  -3  159.12    5.28
  -2   5  -3  167.82    4.96
  -2   5  -3  163.12    4.67
  -2   5  -3  154.24    4.92
   2  -5  -3  161.36    4.49
  -2  -5  -4   54.43    2.36
   2   5  -4   55.94    2.07
  -2  -5  -4   53.75    2.51
   2   5  -4   56.43    2.23
   2   5  -4   54.15    1.93
  -2  -5  -4   51.27    2.25
  -2  -5  -4   53.94    2.68
   2  -5  -4   54.73    2.12
  -2   5  -4   52.31    2.74
  -2   5  -4   54.80    2.45
  -2   5  -4   52.53    2.11
  -2   5  -4   54.89    2.64
   2  -5  -4   54.32    1.99
   2  -5  -4   55.32    1.96
  -2   5  -4   55.44    2.54
  -2  -5  -5   41.85    2.43
  -2  -5  -5   42.34    2.20
  -2  -5  -5   39.44    2.24
  -2  -5  -5   40.54    2.09
   2   5  -5   38.85    2.03
   2   5  -5   43.11    2.07
   2   5  -5   37.56    1.66
  -2   5  -5   38.81    1.83
   2  -5  -5   38.79    1.85
  -2   5  -5   40.06    2.42
   2  -5  -5   40.28    2.04
  -2   5  -5   37.41    2.00
   2  -5  -5   38.37    2.72
  -2   5  -5   39.12    2.51
  -2   5  -5   40.86    2.35
   2   5  -6   22.94    1.38
  -2  -5  -6   24.92    1.76
  -2  -5  -6   21.22    1.57
  -2   5  -6   25.45    1.63
  -2   5  -6   22.54    1.88
   2  -5  -6   21.41    1.53
   2   5  -7    0.75    0.67
  -2  -5  -7   -0.01    0.82
  -2  -5  -7    0.34    0.85
   2  -5  -7   -0.15    1.32
  -2   5  -7    0.60    0.78
  -2   5  -7    0.21    0.61
  -3   5   0   63.77    2.14
  -3   5   0   64.18    2.06
   3  -5   0   62.47    1.97
   3   5   0   64.88    2.28
   3   5   0   65.12    1.99
  -3  -5   0   63.30    2.00
  -3   5   0   67.90    2.02
  -3  -5  -1   45.00    1.86
  -3  -5  -1   47.75    1.70
  -3  -5  -1   49.64    1.71
   3  -5   1   48.35    1.62
   3   5   1   48.61    1.62
  -3   5  -1   48.23    1.60
  -3   5  -1   48.73    1.91
  -3   5  -1   47.75    1.80
  -3   5  -1   46.82    1.77
   3  -5   2  204.84    5.78
  -3  -5  -2  199.16    5.84
   3   5  -2  197.04    5.32
  -3  -5  -2  199.33    5.71
  -3  -5  -2  180.83    5.79
   3  -5  -2  193.40    5.17
  -3   5  -2  191.62    5.57
   3   5   2  191.20    5.54
   3  -5  -2  187.35    5.30
  -3   5  -2  194.10    5.70
   3   5   2  172.56    5.56
  -3   5  -2  195.18    5.72
   3  -5  -2  183.36    5.08
   3   5  -3   60.48    2.01
  -3  -5  -3   62.49    2.44
  -3  -5  -3   65.57    2.53
   3   5  -3   63.31    2.18
   3   5  -3   64.06    2.05
  -3  -5  -3   64.83    2.39
   3  -5   3   66.83    2.26
  -3  -5  -3   64.30    2.66
  -3  -5  -3   64.86    2.51
  -3   5  -3   62.74    2.62
   3  -5  -3   59.66    1.83
   3  -5  -3   64.67    2.09
  -3   5  -3   64.58    2.72
   3  -5  -3   65.61    2.00
  -3   5  -3   63.45    2.35
  -3   5  -3   62.27    2.23
   3  -5  -3   64.99    2.27
  -3   5  -3   66.11    2.61
  -3   5  -3   65.18    2.57
   3   5  -4   15.74    1.14
  -3  -5  -4   17.24    1.40
   3   5  -4   18.01    1.04
   3   5  -4   17.56    0.95
  -3  -5  -4   17.46    1.59
  -3  -5  -4   16.64    1.50
  -3  -5  -4   16.87    1.25
   3  -5  -4   18.49    1.07
  -3   5  -4   19.19    2.49
  -3   5  -4   17.84    1.12
   3  -5  -4   16.64    0.94
   3  -5  -4   17.61    1.00
  -3   5  -4   17.47    1.69
  -3   5  -4   17.73    1.54
  -3   5  -4   17.72    1.83
  -3   5  -4   21.39    1.98
   3   5  -5   31.60    1.90
  -3  -5  -5   31.06    1.86
  -3  -5  -5   30.38    2.09
  -3  -5  -5   31.03    2.25
  -3  -5  -5   30.31    1.92
   3   5  -5   30.67    1.36
   3   5  -5   30.78    1.65
  -3   5  -5   31.07    1.80
   3  -5  -5   29.38    1.46
  -3   5  -5   28.84    2.39
  -3   5  -5   32.23    2.44
  -3   5  -5   31.92    1.64
  -3   5  -5   33.01    2.23
   3  -5  -5   31.77    1.64
   3   5  -6   13.11    1.25
   3   5  -6   12.48    1.13
  -3  -5  -6    7.90    1.13
  -3  -5  -6   12.15    1.31
  -3   5  -6   12.53    1.23
  -3   5  -6   13.00    1.37
   3  -5  -6   11.56    1.19
  -3   5  -6   11.90    2.10
  -3  -5  -7    2.23    0.64
  -3  -5  -7    0.70    0.69
  -3  -5  -7    1.13    0.66
  -3   5  -7    1.11    0.54
  -3   5  -7    1.11    1.27
  -3   5  -7    0.26    0.72
  -4   5   0    6.03    0.68
   4  -5   0    6.08    0.53
  -4  -5   0    4.99    0.52
  -4   5   0    6.05    0.54
  -4   5   0    4.60    0.82
   4   5   0    7.60    0.91
   4   5   0    6.33    0.60
   4   5  -1  141.99    4.17
  -4  -5  -1  138.61    4.15
  -4  -5  -1  136.68    4.08
  -4  -5  -1  141.22    4.14
  -4  -5  -1  142.44    4.30
   4  -5   1  143.68    4.06
   4   5   1  134.92    4.36
  -4   5  -1  136.10    3.93
  -4   5  -1  138.47    4.14
   4   5   1  143.96    4.17
   4  -5  -1  135.01    3.82
  -4   5  -1  142.49    4.35
  -4   5  -1  141.37    4.21
  -4  -5  -2    9.26    0.95
   4  -5   2    8.94    1.08
  -4  -5  -2    8.26    1.09
  -4  -5  -2    8.27    0.91
   4   5  -2    7.23    0.51
  -4  -5  -2    9.91    1.30
   4  -5   2    7.73    0.95
  -4  -5  -2    8.63    0.91
  -4   5  -2    8.08    0.96
   4  -5  -2    8.06    0.89
  -4   5  -2    8.97    1.13
   4   5   2    9.66    1.05
  -4   5  -2    8.73    0.79
   4  -5  -2    8.30    0.72
  -4   5  -2    7.61    0.94
  -4   5  -2    7.96    1.04
   4   5   2    9.63    0.84
  -4  -5  -3   26.98    1.66
  -4  -5  -3   30.54    1.82
   4   5  -3   25.04    1.19
   4   5  -3   26.79    1.09
  -4  -5  -3   29.03    1.55
   4   5  -3   24.92    0.96
   4  -5   3   28.71    1.53
  -4  -5  -3   28.04    1.46
  -4   5  -3   31.02    1.74
   4   5   3   28.12    1.43
  -4   5  -3   27.16    1.66
  -4   5  -3   26.66    1.42
   4  -5  -3   25.84    1.23
  -4   5  -3   25.39    2.16
  -4   5  -3   27.92    1.31
  -4   5  -3   26.97    1.83
   4   5  -4    9.68    0.90
  -4  -5  -4    8.96    1.26
   4   5  -4   11.23    0.83
  -4  -5  -4    9.82    1.36
  -4  -5  -4    9.20    1.24
  -4  -5  -4   10.90    1.45
   4   5  -4    8.96    0.69
  -4  -5  -4   10.04    1.20
  -4   5  -4    9.88    1.38
  -4   5  -4    7.96    0.93
   4  -5  -4    9.62    0.80
  -4   5  -4    8.03    1.02
  -4   5  -4    7.67    1.18
  -4   5  -4   11.55    1.65
  -4   5  -4    9.13    1.34
  -4  -5  -5   50.13    2.38
  -4  -5  -5   48.21    2.70
  -4  -5  -5   47.80    2.95
   4   5  -5   43.46    2.21
   4   5  -5   44.19    1.97
  -4  -5  -5   48.79    2.91
   4   5  -5   47.81    1.85
  -4   5  -5   49.39    3.15
  -4   5  -5   46.19    2.83
   4  -5  -5   43.93    2.10
  -4   5  -5   50.49    3.09
  -4  -5  -6    4.62    0.98
  -4  -5  -6    4.87    1.37
   4   5  -6    4.31    0.84
  -4   5  -6    5.06    1.26
  -4   5  -6    5.93    1.00
   4  -5  -6    4.43    1.03
  -4   5  -6    5.73    1.70
  -4  -5  -7    0.90    0.67
  -4  -5  -7    1.19    0.61
  -4   5  -7    0.27    1.40
  -4   5  -7    1.89    0.57
   5  -5   0   11.53    0.75
  -5   5   0   12.16    0.96
   5   5   0   11.68    0.79
  -5  -5   0   12.25    0.71
   5   5   0   11.88    1.21
  -5  -5  -1   75.11    2.54
  -5  -5  -1   75.85    2.65
  -5  -5  -1   78.47    2.64
   5   5  -1   83.10    3.92
  -5  -5  -1   86.44    3.26
   5   5  -1   82.32    2.45
   5  -5   1   79.57    2.96
  -5  -5  -1   78.93    2.81
  -5   5  -1   79.61    2.44
  -5   5  -1   76.04    2.73
  -5   5  -1   77.15    2.91
   5   5   1   76.40    2.95
  -5   5  -1   76.70    2.80
   5  -5  -1   75.69    2.35
  -5   5  -1   79.80    2.66
  -5   5  -1   79.17    2.89
  -5  -5  -2   45.04    1.97
  -5  -5  -2   46.68    2.00
   5   5  -2   45.64    1.50
  -5  -5  -2   43.99    2.02
  -5  -5  -2   45.73    2.15
   5  -5   2   49.76    3.08
  -5  -5  -2   47.40    1.89
  -5  -5  -2   44.72    2.30
  -5   5  -2   48.76    2.09
  -5   5  -2   44.30    2.05
  -5   5  -2   45.34    2.19
   5   5   2   40.87    2.33
  -5   5  -2   44.57    1.77
   5  -5  -2   45.50    1.46
  -5   5  -2   44.78    1.98
  -5   5  -2   43.85    2.28
   5  -5   3   36.55    1.98
  -5  -5  -3   40.02    1.89
  -5  -5  -3   40.58    1.83
  -5  -5  -3   36.26    1.97
  -5  -5  -3   39.58    1.97
  -5  -5  -3   37.58    2.54
   5   5  -3   38.66    1.44
   5   5   3   44.10    2.03
  -5   5  -3   40.77    2.17
   5  -5  -3   40.94    1.76
  -5   5  -3   39.22    2.06
  -5   5  -3   42.01    1.89
  -5   5  -3   34.56    2.49
  -5   5  -3   40.46    2.21
  -5  -5  -4   15.98    1.91
  -5  -5  -4   17.66    1.37
  -5  -5  -4   16.74    1.59
   5   5  -4   17.96    1.03
   5   5  -4   17.80    1.15
  -5  -5  -4   17.38    1.75
   5   5  -4   16.90    0.98
  -5  -5  -4   17.93    1.39
  -5   5  -4   20.95    2.04
  -5   5  -4   19.77    1.77
  -5   5  -4   18.08    1.33
  -5   5  -4   20.72    1.69
  -5   5  -4   17.45    2.00
  -5  -5  -5   23.80    3.42
   5   5  -5   19.44    1.25
  -5  -5  -5   21.02    1.63
  -5  -5  -5   22.46    2.21
  -5  -5  -5   18.51    1.63
  -5   5  -5   28.33    3.13
  -5   5  -5   27.31    3.38
  -5   5  -5   24.02    1.94
  -5   5  -5   24.99    2.55
  -5   5  -5   17.57    1.49
  -5   5  -5   22.33    1.51
  -5  -5  -6    6.63    1.25
  -5  -5  -6    4.80    0.86
  -5  -5  -6    5.57    1.47
  -5   5  -6    4.04    1.07
  -5   5  -6    4.55    0.80
  -5   5  -6    3.31    0.97
  -5  -5  -7    0.62    0.64
  -5  -5  -7    1.24    0.55
  -5   5  -7    0.79    0.52
  -5   5  -7    0.77    0.48
   6   5   0   25.35    1.73
  -6  -5   0   28.37    1.06
  -6   5   0   30.01    1.96
  -6   5   0   26.96    1.48
  -6   5   0   25.79    1.10
   6   5   0   31.42    1.31
  -6  -5   0   28.79    1.47
  -6   5   0   28.48    1.01
   6  -5   0   26.26    1.31
   6  -5   0   28.03    1.25
   6   5  -1   21.59    1.94
  -6   5   1   21.36    1.41
  -6  -5  -1   19.63    1.25
   6   5  -1   22.44    1.05
   6  -5   1   21.22    1.28
   6  -5   1   22.42    1.53
  -6  -5  -1   19.60    1.51
  -6  -5  -1   20.87    1.17
  -6   5   1   21.80    1.14
   6  -5   1   20.81    1.16
  -6  -5  -1   18.36    1.31
  -6  -5   1   21.15    1.15
  -6   5  -1   21.24    1.53
  -6   5  -1   21.86    1.20
   6   5   1   21.36    1.12
   6  -5  -1   20.72    1.02
   6   5   1   20.28    1.53
  -6   5  -1   17.41    1.33
  -6   5  -1   21.02    1.42
  -6   5  -1   20.70    1.44
  -6  -5  -2    7.78    1.27
  -6  -5  -2    6.37    0.79
  -6  -5  -2    6.50    0.94
  -6  -5  -2    6.00    0.87
  -6  -5  -2    8.27    0.94
   6  -5   2    6.98    0.82
   6  -5   2    6.91    1.07
   6   5  -2    5.93    0.59
  -6  -5  -2    7.56    1.12
   6  -5   2    7.05    0.80
  -6   5  -2    7.21    1.07
   6   5   2    8.71    0.87
  -6   5  -2    7.59    0.97
   6   5   2    6.22    1.07
  -6   5  -2    7.16    0.82
  -6   5  -2    5.76    1.19
  -6   5  -2    7.07    1.10
  -6   5  -2    7.33    0.78
  -6   5  -2    6.17    1.10
   6   5  -3    1.75    0.43
  -6  -5  -3    2.49    0.69
  -6  -5  -3    1.19    0.72
  -6  -5  -3    1.56    0.86
  -6  -5  -3    1.86    1.33
  -6  -5  -3    1.44    0.71
   6  -5   3    1.58    0.83
   6   5  -3    0.47    0.41
   6  -5  -3    1.21    0.59
  -6   5  -3    0.63    1.16
  -6   5  -3    2.33    0.84
  -6   5  -3    1.11    0.60
  -6   5  -3    1.84    0.75
   6   5   3    0.68    0.69
  -6   5  -3    1.53    0.65
  -6   5  -3    1.76    0.93
  -6   5  -3    2.53    1.01
   6  -5   4   34.54    1.43
  -6  -5  -4   34.55    2.56
   6   5  -4   32.07    1.45
  -6  -5  -4   37.05    1.93
  -6  -5  -4   36.79    2.24
  -6  -5  -4   35.25    2.96
  -6  -5  -4   38.25    2.36
  -6  -5  -4   32.08    1.90
  -6   5  -4   35.09    1.82
  -6   5  -4   33.19    2.16
  -6   5  -4   37.66    2.78
  -6   5  -4   34.12    2.26
  -6   5  -4   33.79    2.51
  -6   5  -4   34.83    1.84
  -6   5  -4   30.66    3.11
  -6  -5  -5    3.80    0.87
  -6  -5  -5    3.33    0.99
  -6  -5  -5    2.29    1.72
  -6  -5  -5    4.29    1.61
  -6  -5  -5    5.35    1.38
  -6   5  -5    4.13    1.02
  -6   5  -5    2.01    1.93
  -6   5  -5    6.01    0.98
  -6   5  -5    3.62    1.70
  -6   5  -5    4.03    0.98
  -6   5  -5    3.86    1.47
  -6  -5  -6    0.21    0.74
  -6  -5  -6    0.93    0.76
  -6  -5  -6    1.01    0.67
  -6   5  -6    0.11    0.56
  -6   5  -6    0.94    0.87
  -6   5  -6    0.63    0.66
   7  -5   0   19.22    1.60
  -7   5   0   14.65    1.28
   7  -5   0   14.65    0.96
  -7   5   0   14.78    1.20
   7  -5   0   15.61    1.10
  -7  -5   0   15.99    1.23
   7   5   0   16.31    1.73
   7   5   0   14.33    0.98
  -7   5   1    8.91    1.17
   7   5  -1    6.95    0.71
  -7  -5  -1    7.09    0.78
  -7   5   1    7.68    0.81
  -7  -5  -1    9.43    1.25
   7  -5   1    8.85    0.94
   7  -5   1    6.87    1.12
  -7  -5  -1    8.39    1.11
  -7  -5  -1    9.40    1.24
   7  -5   1    7.98    0.87
  -7   5  -1    8.58    0.98
  -7  -5   1    8.76    0.91
  -7   5  -1    8.40    1.27
  -7   5  -1    8.00    0.87
   7   5   1    8.15    0.86
   7   5   1    5.85    1.12
  -7   5  -1    9.88    1.24
  -7   5  -1    6.29    1.16
   7  -5  -1    8.45    0.76
  -7  -5  -2    8.49    1.18
   7  -5   2    7.34    1.25
  -7  -5  -2    6.11    2.20
   7  -5   2    7.00    0.86
  -7  -5  -2    4.99    0.82
   7   5  -2    8.16    0.78
  -7  -5  -2    9.15    1.32
  -7  -5  -2    7.19    0.94
  -7  -5  -2    5.15    1.06
   7  -5   2    8.35    0.96
  -7   5  -2    8.49    1.45
  -7   5  -2    7.91    1.09
  -7   5  -2    7.16    0.99
   7  -5  -2    7.64    0.72
   7   5   2    7.37    0.86
  -7   5  -2    6.82    0.75
  -7   5  -2    6.76    1.31
  -7   5  -2    9.64    2.15
   7   5   2    7.89    1.28
  -7   5  -2    8.15    1.02
  -7  -5  -3   17.27    1.90
   7  -5   3   15.29    1.99
   7   5  -3   14.64    1.01
  -7  -5  -3   21.71    2.30
  -7  -5  -3   15.38    1.30
  -7  -5  -3   17.36    1.45
  -7  -5  -3   15.19    1.26
  -7  -5  -3   11.27    1.56
  -7  -5  -3   15.41    1.63
   7   5  -3   13.57    0.93
  -7   5  -3   13.86    1.86
  -7   5  -3   13.50    1.15
   7  -5  -3   14.96    0.96
  -7   5  -3   17.53    1.48
  -7   5  -3   18.87    2.23
   7   5   3   14.66    1.65
  -7   5  -3   14.13    1.37
  -7   5  -3   17.87    2.04
   7   5  -4   22.44    1.50
  -7  -5  -4   22.28    1.94
  -7  -5  -4   30.81    2.87
   7   5  -4   23.07    1.28
  -7  -5  -4   23.61    1.63
   7  -5   4   26.28    1.54
  -7  -5  -4   19.85    2.16
  -7  -5  -4   23.19    1.91
  -7  -5  -4   22.92    2.50
   7   5  -4   19.37    1.22
  -7  -5  -4   23.92    1.60
  -7   5  -4   21.10    1.56
  -7   5  -4   21.94    2.60
  -7   5  -4   27.55    2.60
  -7   5  -4   22.53    1.98
   7   5   4   25.45    1.38
  -7   5  -4   22.05    1.49
   7  -5  -4   23.91    1.27
  -7   5  -4   23.01    2.66
  -7  -5  -5   10.66    1.19
  -7  -5  -5   12.60    1.25
  -7  -5  -5   13.62    1.67
  -7  -5  -5   11.76    1.54
  -7   5  -5   11.40    1.18
  -7   5  -5    8.92    1.35
  -7   5  -5   10.33    1.63
  -7   5  -5   11.70    1.30
  -7  -5  -6    4.02    0.93
  -7  -5  -6    3.94    0.89
  -7   5  -6    1.16    0.71
  -7   5  -6    3.11    0.80
  -7   5  -6    1.96    0.81
  -8  -5   0  122.32    4.22
   8  -5   0  128.10    4.00
   8   5   0  117.20    3.94
   8  -5   0  127.25    4.08
   8   5   0  132.28    5.07
  -8   5   1   24.19    1.22
  -8  -5  -1   22.19    1.23
   8  -5   1   22.44    1.77
   8  -5   1   23.32    1.36
   8  -5   1   26.63    2.06
  -8  -5  -1   23.62    1.77
   8   5  -1   25.14    1.31
  -8  -5   1   24.82    1.26
  -8   5  -1   24.60    1.23
  -8   5  -1   24.85    1.67
   8   5   1   21.76    1.31
   8   5   1   26.71    2.07
   8  -5  -1   23.49    1.28
  -8  -5  -2   32.65    2.17
   8  -5   2   31.90    1.64
  -8  -5  -2   28.68    2.72
  -8  -5  -2   28.80    2.24
   8  -5   2   29.07    2.20
  -8  -5  -2   29.14    1.66
   8   5  -2   32.23    1.49
   8   5   2   29.95    1.62
  -8   5  -2   33.60    2.26
  -8   5  -2   31.10    1.91
   8   5   2   33.72    1.88
   8   5   2   29.97    2.19
  -8   5  -2   29.73    2.94
  -8   5  -2   29.48    1.70
  -8   5  -2   30.26    1.75
   8  -5  -2   32.43    1.48
  -8  -5  -3    6.60    1.68
   8  -5   3    6.67    1.32
  -8  -5  -3    7.46    1.19
   8   5  -3    4.85    0.73
  -8  -5  -3    7.40    1.23
  -8  -5  -3    6.91    0.98
  -8   5  -3    6.75    1.58
   8  -5  -3    8.69    0.87
   8   5   3    7.22    1.32
  -8   5  -3    7.46    1.22
  -8   5  -3    5.20    0.96
  -8   5  -3    7.75    1.30
  -8   5  -3    8.05    0.96
  -8   5  -3    3.47    2.37
   8   5  -4   25.38    1.59
  -8  -5  -4   27.63    2.04
  -8  -5  -4   32.13    1.72
   8  -5   4   27.89    1.81
   8   5  -4   33.27    1.55
  -8  -5  -4   32.04    2.11
  -8  -5  -4   35.70    2.89
  -8  -5  -4   30.74    1.79
  -8  -5  -4   27.27    3.07
   8   5   4   30.89    1.70
  -8   5  -4   24.60    3.21
  -8   5  -4   24.60    1.99
  -8   5  -4   33.26    1.92
   8  -5  -4   31.80    1.54
  -8   5  -4   30.46    2.10
  -8   5  -4   31.50    1.65
  -8   5  -4   28.63    2.65
  -8   5  -4   31.47    2.08
  -8  -5  -5    5.13    0.90
  -8  -5  -5    5.76    1.81
  -8  -5  -5    3.98    2.02
  -8  -5  -5    4.28    1.12
  -8   5  -5    1.95    0.71
  -8   5  -5    4.22    0.77
  -8   5  -5    5.96    2.18
  -8   5  -5    4.20    0.99
  -8   5  -5    5.23    1.62
  -8  -5  -6    6.08    1.42
  -8   5  -6    3.02    0.71
  -8   5  -6    2.94    0.75
   9   5   0    0.14    0.41
  -9   5   0    0.63    0.68
  -9   5   0    1.32    0.80
  -9  -5   0    0.84    0.67
   9  -5   0    0.08    0.45
   9  -5   0   -2.36    1.15
   9   5   0    1.22    1.21
   9  -5   0    1.04    0.61
   9  -5   1    6.88    0.94
   9   5  -1    7.39    0.91
  -9   5   1    8.55    1.30
   9  -5   1    8.40    1.07
  -9   5   1    8.76    0.77
  -9  -5  -1    5.86    1.13
  -9  -5  -1    6.66    0.56
   9  -5   1    6.32    1.74
  -9  -5   1    9.31    0.82
   9  -5  -1    7.42    0.93
   9   5   1    9.05    1.73
   9  -5  -1    9.91    1.08
  -9   5  -1    7.78    1.29
  -9   5  -1   10.02    1.40
   9   5  -2   17.58    1.16
   9  -5   2   15.59    1.32
   9  -5   2   12.44    1.22
  -9  -5  -2   13.35    1.52
  -9  -5  -2   14.49    1.75
  -9  -5  -2   14.49    1.25
   9  -5   2   15.35    2.03
   9   5   2   14.27    1.84
   9  -5  -2   16.30    1.11
  -9   5  -2   14.23    1.79
   9   5   2   12.86    1.27
  -9   5  -2   15.85    1.84
   9   5   2   14.45    1.28
   9  -5  -2   14.98    1.29
  -9   5  -2   13.63    1.71
   9  -5   3   10.94    1.67
  -9  -5  -3    8.88    1.17
  -9  -5  -3    7.74    1.19
  -9  -5  -3    9.63    1.63
   9   5  -3    9.27    1.03
   9   5  -3    9.75    0.96
  -9   5  -3   10.06    1.34
  -9   5  -3   12.16    1.93
   9   5   3   10.09    1.50
  -9   5  -3    9.59    1.41
   9  -5  -3   14.76    1.90
   9  -5  -3   11.71    1.09
  -9  -5  -4    6.56    1.24
  -9  -5  -4    7.82    1.73
   9  -5   4    6.43    1.22
  -9  -5  -4    6.29    1.21
   9   5  -4    9.96    1.06
  -9   5  -4    8.60    1.78
   9   5   4    9.92    1.18
  -9   5  -4    7.29    1.72
   9  -5  -4    9.38    1.09
  -9   5  -4    7.28    1.32
  -9   5  -4    5.37    1.14
  -9  -5  -5    1.65    1.79
  -9  -5  -5    1.39    0.86
  -9   5  -5    3.45    1.67
  -9   5  -5    0.94    0.70
  -9   5  -5   -0.14    0.88
  -9   5  -6   -0.13    0.65
  10  -5   0    2.31    0.78
  10  -5   0    5.29    2.18
  10  -5   0    2.88    0.76
  10   5   0    1.99    0.61
 -10   5   0    2.82    0.85
  10   5   0    5.05    1.83
 -10   5   0    3.25    1.04
  10  -5   1    7.73    1.07
  10  -5   1    8.12    1.09
 -10  -5  -1    7.32    1.28
  10   5  -1    4.87    0.83
  10  -5   1    8.43    1.69
 -10   5  -1    5.88    1.12
  10   5   1    8.00    1.08
  10   5   1    7.46    1.71
  10  -5  -1    6.81    0.98
 -10  -5  -2   18.08    1.81
  10   5  -2   16.04    1.25
  10  -5   2   17.41    1.61
  10  -5   2   16.93    2.25
 -10  -5  -2   15.66    1.17
  10  -5   2   17.53    1.43
 -10   5  -2   16.39    1.59
 -10   5  -2   14.30    1.71
  10   5   2   20.08    2.20
  10  -5  -2   17.66    1.28
  10   5   2   14.77    1.42
  10   5   2   18.51    1.57
 -10   5  -2   16.29    1.14
 -10  -5  -3    3.31    1.30
  10   5  -3    4.95    0.79
  10  -5   3    4.01    1.21
  10   5  -3    2.20    0.89
 -10  -5  -3    2.52    0.85
 -10  -5  -3    5.70    1.16
 -10   5  -3    5.29    0.94
  10   5   3    3.00    1.17
  10  -5  -3    4.22    0.83
  10  -5  -3    3.97    1.01
 -10   5  -3    3.23    0.98
 -10   5  -3    1.94    1.26
 -10  -5  -4    0.53    1.25
 -10  -5  -4    0.69    0.83
  10   5  -4    0.33    0.71
 -10  -5  -4    1.16    1.42
  10  -5  -4    1.12    0.84
 -10   5  -4   -0.84    1.08
 -10   5  -4    0.50    0.76
 -10  -5  -5   -1.75    1.32
 -10  -5  -5    0.07    0.76
 -10   5  -5   -0.25    0.62
 -10   5  -5    0.59    1.38
 -11  -5   0   -0.54    0.68
  11  -5   0   -0.07    0.66
 -11   5   0    0.74    0.97
  11   5   0    0.41    0.71
 -11   5   0    0.23    0.69
  11  -5   0    0.52    0.69
  11   5   0    2.56    2.71
  11  -5   0   -5.02    3.24
  11  -5   1    2.87    0.81
  11   5  -1    1.68    0.95
  11  -5   1   -0.12    1.66
  11  -5   1    2.59    0.96
 -11  -5  -1    1.97    1.02
 -11   5  -1    1.42    0.97
 -11   5  -1    1.38    0.90
  11  -5  -1    2.33    0.81
  11   5   1    0.58    0.69
  11  -5  -1    0.70    0.90
  11   5   1    1.59    0.83
  11   5   1    0.79    1.46
  11  -5   2    0.70    0.75
 -11  -5  -2    0.33    0.86
  11   5  -2    0.32    0.59
  11  -5   2   -1.22    1.03
  11  -5   2   -0.50    1.25
  11   5   2   -0.14    0.81
  11  -5  -2   -0.50    0.70
 -11   5  -2   -1.37    0.73
  11  -5  -2   -0.53    0.61
 -11   5  -2    0.41    0.95
  11   5   2   -0.25    1.10
  11   5   2    1.08    1.29
  11  -5   3    6.84    1.56
 -11  -5  -3    5.93    1.21
 -11  -5  -3    5.31    2.01
  11   5  -3    8.59    0.98
  11   5   3    6.41    1.31
  11  -5  -3    8.83    1.11
  11  -5  -3   10.08    1.21
 -11   5  -3    7.24    1.49
 -11   5  -3    7.13    2.18
 -11  -5  -4    0.15    1.12
 -11  -5  -4   -0.93    0.87
 -11   5  -4    0.08    0.91
 -11   5  -4   -0.29    0.63
 -11   5  -5    0.85    0.89
  12  -5   0   23.90    1.64
  12  -5   0   11.08    3.20
  12   5   0   23.52    3.39
  12  -5   0   24.10    1.60
  12   5   0   22.84    1.66
  12  -5   1   13.77    1.47
  12   5  -1   14.55    1.33
  12  -5   1   12.98    2.50
  12  -5   1   14.65    1.37
 -12  -5  -1   13.39    2.33
  12  -5  -1   17.29    1.43
  12   5   1   15.34    2.31
  12  -5  -1   15.50    1.41
  12   5   1   12.86    1.39
  12  -5   2    4.87    1.00
 -12  -5  -2    4.42    1.16
  12   5  -2    5.72    0.92
  12   5   2    4.76    0.98
  12   5   2    0.74    1.93
 -12   5  -2    2.18    1.06
  12  -5  -2    4.73    0.95
  12  -5  -2    5.74    0.99
 -12   5  -2    3.23    1.01
  12   5  -3    3.31    0.81
 -12  -5  -3    4.40    1.12
  12  -5  -3    3.83    0.86
 -12   5  -3    2.43    0.84
  12  -5  -3    6.28    1.37
 -12   5  -3    3.64    1.14
 -12  -5  -4    0.83    1.02
 -12   5  -4    0.13    0.68
 -12   5  -4    0.17    0.91
  13   5   0    0.32    0.72
  13  -5   0    0.40    1.11
  13  -5   0   -0.14    0.60
  13   5   0   -0.40    0.57
 -13  -5  -1   -0.02    0.66
  13   5  -1   -0.76    0.68
  13  -5   1    0.99    0.74
  13  -5   1    1.22    1.07
  13   5   1   -1.05    0.68
  13  -5  -1   -0.56    0.63
  13   5   1   -0.04    0.96
 -13   5  -1    0.62    1.66
  13  -5  -1    0.02    0.71
 -13  -5  -2    3.12    0.91
  13   5  -2    2.19    0.75
 -13   5  -2    4.17    1.01
 -13   5  -2    4.21    1.33
  13  -5  -2    2.16    0.78
  13  -5  -2    4.07    0.91
 -13  -5  -3   -0.77    0.77
  13   5  -3   -0.60    0.79
 -13   5  -3   -0.77    1.71
 -13   5  -3   -0.14    0.79
  14   5   0    0.12    0.62
  14  -5   0    0.07    0.57
  14   5  -1    2.26    0.66
  14  -5   1    2.94    0.80
  14   5   1    0.95    0.73
  14  -5  -1    5.14    0.86
  14   5  -2   -1.51    0.53
  14  -5  -2    0.57    0.59
   0   6   0   53.19    1.86
   0   6   0   58.52    1.85
   0   6   0   53.45    1.82
   0  -6   0   52.95    1.77
   0   6   1    5.93    0.58
   0  -6  -1    6.23    0.61
   0   6  -1    5.67    0.70
   0  -6  -1    5.75    0.53
   0   6  -1    5.94    0.57
   0  -6  -1    5.68    0.59
   0   6  -1    5.94    0.65
   0   6   1    5.64    0.50
   0   6   1    5.65    0.58
   0  -6  -2  153.79    4.46
   0  -6  -2  157.40    4.30
   0   6  -2  151.41    4.62
   0  -6  -2  153.40    4.35
   0   6  -2  158.41    4.24
   0  -6   2  155.08    3.95
   0   6  -2  154.74    4.50
   0   6  -2  150.03    4.37
   0  -6  -2  158.19    4.48
   0  -6   2  141.53    3.93
   0   6  -3   25.18    1.38
   0   6  -3   22.93    2.12
   0   6  -3   25.61    1.30
   0   6  -3   27.90    1.32
   0  -6  -3   23.56    1.29
   0  -6  -3   24.37    1.23
   0  -6  -3   23.93    1.18
   0   6  -4    8.01    1.06
   0  -6  -4    9.90    1.07
   0   6  -4    8.30    0.76
   0  -6  -4    7.10    0.86
   0  -6  -4    9.21    0.96
   0  -6  -4    9.68    1.14
   0   6  -4    7.99    0.93
   0   6  -4    9.22    1.04
   0   6  -4   12.15    1.36
   0   6  -5   15.08    1.63
   0   6  -5   14.15    2.38
   0  -6  -5   12.33    1.41
   0  -6  -5   13.97    1.28
   0   6  -5   13.89    1.46
   0   6  -5   13.58    1.03
   0  -6  -5   13.81    2.22
   0  -6  -5   12.97    1.34
   0   6  -5   15.33    1.30
   0   6  -6   -0.45    0.63
   0   6  -6    0.15    0.64
   0  -6  -6   -0.21    0.67
   0  -6  -6    0.83    0.82
   0  -6  -7    0.93    0.69
   0   6  -7    0.35    0.54
   0   6  -7    0.49    0.75
   0  -6  -7   -0.07    0.69
  -1   6   0   78.44    2.37
  -1   6   0   79.42    2.46
  -1   6   0   77.60    2.44
  -1  -6   0   79.60    2.39
   1   6   0   79.38    2.44
   1   6   0   78.20    2.52
   1  -6   0   77.21    2.43
   1   6   0   82.22    2.38
  -1  -6  -1   75.02    2.32
   1   6  -1   68.49    2.34
  -1   6   1   71.21    2.29
  -1  -6  -1   73.32    2.22
  -1  -6  -1   69.08    2.19
   1   6  -1   71.22    2.25
  -1  -6  -1   70.71    2.24
  -1   6   1   70.19    2.15
  -1   6   1   69.45    2.07
   1   6  -1   69.37    2.14
  -1   6  -1   69.91    2.33
   1   6   1   69.60    2.28
   1   6   1   71.17    2.17
  -1   6  -1   70.79    2.12
  -1   6  -1   74.12    2.26
   1   6   1   68.88    2.24
  -1   6  -1   70.56    2.35
  -1  -6  -2    4.92    0.60
   1  -6   2    5.03    0.57
   1   6  -2    3.52    0.50
  -1  -6  -2    4.93    0.60
  -1  -6  -2    5.14    0.67
   1   6  -2    4.15    0.58
  -1  -6  -2    5.10    0.64
  -1   6  -2    5.64    0.77
   1  -6  -2    4.13    0.59
   1  -6  -2    4.36    0.44
  -1   6  -2    4.90    0.72
   1   6   2    4.79    0.61
  -1   6  -2    5.47    0.53
   1  -6  -2    4.09    0.46
  -1   6  -2    5.02    0.64
   1   6  -3  111.65    3.51
  -1  -6  -3  117.86    3.68
  -1  -6  -3  119.65    3.86
   1   6  -3  114.52    3.67
  -1  -6  -3  115.23    3.79
   1   6  -3  114.54    3.36
  -1  -6  -3  119.21    3.61
  -1  -6  -3  109.82    3.66
   1  -6  -3  113.34    3.39
  -1   6  -3  111.30    3.81
  -1   6  -3  115.10    3.47
  -1   6  -3  115.55    3.71
   1  -6  -3  112.79    3.47
  -1   6  -3  114.32    3.61
   1  -6  -3  112.03    3.58
  -1   6  -3  121.94    4.00
  -1   6  -3  118.51    3.88
   1   6  -4    8.59    1.02
   1   6  -4    9.18    0.78
   1   6  -4    6.81    1.23
  -1  -6  -4    8.85    1.08
  -1  -6  -4   10.87    1.14
  -1  -6  -4    9.73    1.14
  -1  -6  -4    9.47    1.02
   1   6  -4    8.28    1.03
   1   6  -4    9.73    1.01
   1  -6  -4    8.49    1.01
  -1   6  -4    8.71    1.22
   1  -6  -4    9.80    0.90
   1  -6  -4    9.86    0.95
  -1   6  -4    8.62    0.96
  -1   6  -4    8.69    1.05
   1  -6  -4   10.11    1.17
  -1   6  -4    7.81    0.83
  -1   6  -4   12.50    1.45
   1   6  -5   25.68    1.70
   1   6  -5   23.05    1.26
   1   6  -5   29.75    3.05
  -1  -6  -5   22.10    1.84
  -1  -6  -5   25.14    1.68
  -1  -6  -5   23.59    1.78
   1   6  -5   25.25    1.56
  -1  -6  -5   23.52    1.61
   1  -6  -5   20.46    1.74
   1  -6  -5   26.49    1.56
  -1   6  -5   23.64    1.33
  -1   6  -5   25.00    1.61
   1  -6  -5   23.81    1.46
  -1   6  -5   21.42    1.86
  -1   6  -5   25.08    1.86
  -1   6  -5   27.55    2.11
  -1  -6  -6    0.27    0.74
   1   6  -6   -0.03    0.60
  -1  -6  -6    0.30    0.66
   1   6  -6    0.49    0.64
  -1   6  -6    0.46    0.57
   1  -6  -6    0.13    0.68
  -1   6  -6    0.54    0.65
   1  -6  -6   -0.91    0.82
  -1  -6  -7   18.60    1.44
   1   6  -7   16.83    1.26
   1   6  -7   20.12    1.24
  -1  -6  -7   17.25    1.75
   1  -6  -7   22.13    1.56
   1  -6  -7   18.25    1.51
  -1   6  -7   20.01    1.26
  -1   6  -7   28.83    2.40
  -2   6   0   67.18    2.13
  -2   6   0   68.98    2.20
   2   6   0   65.84    2.30
   2  -6   0   66.14    2.05
   2   6   0   69.28    2.12
  -2   6   0   65.92    2.11
  -2  -6   0   67.39    2.09
   2   6   0   67.18    2.04
   2   6  -1   68.95    2.08
   2   6  -1   67.66    1.99
  -2  -6  -1   68.09    2.18
  -2  -6  -1   66.05    2.18
  -2  -6  -1   68.71    2.27
  -2   6   1   65.55    1.77
   2   6   1   63.36    2.90
  -2   6  -1   68.62    2.33
  -2   6  -1   68.14    2.29
  -2   6  -1   66.90    2.08
  -2   6  -1   70.03    2.25
   2   6   1   66.80    2.15
   2   6  -2  219.86    6.21
   2   6  -2  217.66    6.08
  -2  -6  -2  228.52    6.47
  -2  -6  -2  227.01    6.34
  -2  -6  -2  229.81    6.39
   2  -6   2  225.61    6.33
   2   6   2  229.20    6.28
   2  -6  -2  215.47    5.94
   2  -6  -2  222.93    6.12
  -2   6  -2  230.65    6.38
   2   6   2  226.68    6.17
   2  -6  -2  222.81    6.05
   2  -6  -2  221.72    6.15
  -2   6  -2  221.96    6.50
  -2   6  -2  220.11    6.43
  -2  -6  -3    3.20    0.75
  -2  -6  -3    3.13    0.69
  -2  -6  -3    4.09    0.77
   2   6  -3    3.44    0.45
   2   6  -3    3.05    0.51
  -2  -6  -3    3.77    0.69
   2   6  -3    4.10    0.67
  -2  -6  -3    3.27    0.76
  -2   6  -3    3.39    0.55
   2  -6  -3    2.55    0.50
  -2   6  -3    3.61    0.79
  -2   6  -3    3.71    0.74
   2  -6  -3    3.30    0.47
  -2   6  -3    4.63    0.92
  -2   6  -3    2.91    0.76
   2  -6  -3    2.55    0.43
  -2   6  -3    4.64    0.70
  -2  -6  -4    4.98    0.92
  -2  -6  -4    5.13    0.97
  -2  -6  -4    4.81    1.18
  -2  -6  -4    3.70    0.80
   2   6  -4    4.30    0.71
   2   6  -4    4.78    0.59
   2   6  -4    4.07    0.77
  -2  -6  -4    2.52    0.74
   2  -6  -4    4.32    0.65
   2  -6  -4    2.94    0.65
  -2   6  -4    6.56    1.23
  -2   6  -4    2.41    0.76
   2  -6  -4    3.87    0.61
  -2   6  -4    3.01    0.94
  -2   6  -4    2.60    0.87
  -2   6  -4    2.58    0.66
  -2   6  -4    2.82    0.69
   2   6  -5   16.31    1.49
   2   6  -5   14.40    1.36
   2   6  -5   15.40    1.57
  -2  -6  -5   17.12    1.88
  -2  -6  -5   17.75    1.69
  -2  -6  -5   13.71    1.43
   2  -6  -5   13.43    1.17
  -2   6  -5   16.29    1.73
   2  -6  -5   18.91    1.68
   2  -6  -5   12.98    1.13
  -2   6  -5   12.11    1.72
  -2   6  -5   12.03    1.57
  -2   6  -5   14.52    1.10
   2  -6  -5   14.91    1.38
  -2  -6  -6    3.48    0.97
   2   6  -6    3.95    0.82
  -2  -6  -6    3.64    0.87
   2  -6  -6    3.06    0.82
  -2   6  -6    3.84    0.95
  -2   6  -6    3.04    0.80
   2   6  -7    2.92    0.86
  -2  -6  -7    2.15    0.78
   2   6  -7    3.21    1.17
  -2  -6  -7    2.53    0.76
  -2   6  -7    2.66    0.77
  -2   6  -7    3.05    0.66
   2  -6  -7    3.99    1.67
  -3   6   0   24.87    1.11
   3   6   0   25.90    1.03
   3   6   0   24.45    1.30
   3  -6   0   24.52    1.01
  -3   6   0   25.35    1.06
  -3   6   0   23.85    1.18
  -3  -6   0   25.20    1.04
  -3  -6  -1   51.79    1.90
  -3  -6  -1   48.19    1.75
   3   6  -1   47.91    1.56
  -3  -6  -1   48.28    1.76
   3  -6   1   49.13    1.69
   3   6   1   53.00    1.83
  -3   6  -1   48.28    1.96
  -3   6  -1   49.53    1.67
  -3   6  -1   50.50    1.88
   3  -6  -1   48.34    1.58
  -3   6  -1   50.08    1.87
   3   6   1   50.99    2.00
   3  -6   2   13.54    1.06
  -3  -6  -2   11.85    0.99
  -3  -6  -2   12.06    0.90
  -3  -6  -2   12.86    0.97
   3   6  -2   12.84    0.74
   3   6   2   11.86    0.96
  -3   6  -2   11.96    1.09
   3  -6  -2   12.43    0.84
   3  -6  -2   12.17    0.62
   3   6   2   12.11    0.99
  -3   6  -2   12.69    0.99
  -3   6  -2   12.58    1.04
  -3  -6  -3   48.65    2.13
   3   6  -3   48.64    1.91
  -3  -6  -3   47.51    2.15
  -3  -6  -3   47.94    2.09
   3  -6   3   53.11    1.95
   3   6  -3   49.22    1.59
  -3  -6  -3   49.37    2.05
   3   6  -3   50.01    1.77
   3  -6  -3   50.10    1.72
  -3   6  -3   48.42    2.21
   3  -6  -3   48.35    1.63
  -3   6  -3   49.53    2.01
  -3   6  -3   51.61    1.87
  -3   6  -3   49.74    2.28
  -3   6  -3   52.43    2.29
   3   6  -4   26.28    1.50
  -3  -6  -4   26.59    1.83
  -3  -6  -4   25.26    1.79
   3   6  -4   26.56    1.12
  -3  -6  -4   25.52    1.61
   3   6  -4   26.31    1.37
  -3  -6  -4   25.48    1.71
  -3  -6  -4   26.15    1.56
  -3   6  -4   25.78    1.81
  -3   6  -4   26.54    1.35
  -3   6  -4   26.14    2.02
  -3   6  -4   26.40    1.97
   3  -6  -4   25.58    1.22
   3  -6  -4   25.83    1.24
  -3   6  -4   23.24    1.90
  -3   6  -4   28.15    1.57
  -3  -6  -5   22.35    1.84
  -3  -6  -5   21.25    1.63
  -3  -6  -5   22.28    2.04
   3   6  -5   21.42    1.50
   3   6  -5   19.37    1.22
   3   6  -5   24.58    1.73
  -3  -6  -5   21.95    1.58
  -3   6  -5   19.87    1.47
  -3   6  -5   23.99    2.26
  -3   6  -5   22.85    2.75
  -3   6  -5   24.98    2.27
   3  -6  -5   21.08    1.42
  -3   6  -5   21.83    1.86
   3  -6  -5   21.45    1.31
  -3  -6  -6    2.61    0.87
  -3  -6  -6    2.47    0.84
   3   6  -6    3.90    0.90
   3   6  -6    2.54    0.72
   3  -6  -6    1.21    0.83
  -3   6  -6    0.92    0.76
   3  -6  -6    4.82    1.43
  -3   6  -6    1.47    0.73
  -3  -6  -7    7.63    0.90
  -3  -6  -7    7.45    1.06
  -3  -6  -7    4.87    1.20
  -3   6  -7    9.53    0.94
  -4   6   0   -0.18    0.29
   4   6   0   -0.10    0.31
  -4   6   0   -0.03    0.45
  -4   6   0    0.34    0.43
   4  -6   0    0.33    0.33
  -4  -6   0    0.06    0.31
   4   6   0   -0.43    0.50
   4   6  -1   22.41    1.41
  -4  -6  -1   19.65    1.07
   4   6  -1   20.78    0.91
  -4  -6  -1   19.25    1.12
  -4  -6  -1   21.73    1.23
  -4  -6  -1   21.12    1.11
   4   6   1   23.42    1.05
  -4   6  -1   20.75    1.21
  -4   6  -1   20.97    1.05
  -4   6  -1   19.88    1.32
  -4   6  -1   21.73    1.14
   4  -6  -1   21.05    0.91
   4   6   1   21.30    1.36
   4   6  -2   69.81    2.22
   4   6  -2   67.73    2.08
  -4  -6  -2   69.13    2.52
  -4  -6  -2   71.36    2.69
   4  -6   2   69.39    2.34
  -4  -6  -2   67.76    2.52
  -4  -6  -2   69.05    2.52
   4  -6   2   67.82    2.67
  -4  -6  -2   70.66    2.70
  -4   6  -2   70.11    2.65
   4  -6  -2   65.61    2.35
  -4   6  -2   69.67    2.60
  -4   6  -2   68.85    2.66
  -4   6  -2   67.61    2.33
   4  -6  -2   70.09    2.09
   4   6   2   71.31    2.50
   4   6   2   70.97    2.70
  -4   6  -2   74.67    2.43
  -4   6  -2   68.58    2.78
   4   6  -3   38.19    1.46
  -4  -6  -3   39.28    1.85
  -4  -6  -3   37.49    2.02
   4   6  -3   37.42    1.36
   4   6  -3   39.56    1.63
   4  -6   3   39.97    1.88
  -4  -6  -3   40.84    1.97
  -4  -6  -3   35.71    1.78
   4   6   3   36.87    1.72
  -4   6  -3   38.41    1.99
  -4   6  -3   38.92    1.73
  -4   6  -3   37.13    2.01
  -4   6  -3   31.68    2.62
  -4   6  -3   39.52    1.98
  -4   6  -3   36.25    2.13
   4  -6  -3   36.30    1.32
  -4  -6  -4    9.82    1.18
   4   6  -4    8.20    0.82
  -4  -6  -4    9.80    1.53
   4   6  -4    7.93    0.97
  -4  -6  -4    8.75    1.09
  -4  -6  -4    8.53    1.21
   4   6  -4    9.14    0.79
  -4  -6  -4   10.72    1.35
  -4   6  -4    9.99    1.33
  -4   6  -4    7.59    0.99
  -4   6  -4    8.19    1.48
  -4   6  -4    7.45    1.21
  -4   6  -4   10.99    1.46
   4  -6  -4    9.42    0.82
   4   6  -5    0.75    0.66
  -4  -6  -5    0.20    0.68
  -4  -6  -5   -0.73    0.94
  -4  -6  -5   -0.42    1.04
  -4  -6  -5    0.31    0.70
  -4  -6  -5    1.85    1.40
   4   6  -5    0.57    0.54
   4   6  -5    1.64    1.02
  -4   6  -5   -0.86    1.39
  -4   6  -5    0.18    1.21
  -4   6  -5   -1.19    1.02
  -4   6  -5    0.96    0.72
  -4   6  -5    0.12    0.83
   4  -6  -5   -0.48    0.66
  -4   6  -5    0.58    0.58
  -4  -6  -6   20.65    1.55
   4   6  -6   16.22    1.25
   4  -6  -6   17.89    1.55
  -4   6  -6   20.51    1.46
  -4   6  -6   19.07    1.68
  -4  -6  -7    1.65    0.61
  -4  -6  -7    1.69    0.74
  -4   6  -7    2.07    0.64
  -4   6  -7    2.26    0.60
  -5  -6   0   25.15    1.09
   5   6   0   25.34    1.55
   5   6   0   27.06    1.19
   5  -6   0   26.37    1.16
  -5   6   0   24.37    1.34
  -5   6   1   59.09    2.38
   5  -6   1   62.95    2.23
  -5   6   1   58.51    2.11
   5  -6   1   61.08    2.12
  -5  -6  -1   56.93    2.48
  -5  -6  -1   61.60    2.20
  -5  -6  -1   57.92    2.30
   5   6  -1   62.19    2.00
  -5  -6  -1   58.99    2.21
  -5  -6  -1   59.62    2.09
  -5  -6   1   54.00    2.57
  -5   6  -1   59.60    2.01
   5   6   1   60.76    2.11
  -5   6  -1   66.60    2.63
  -5   6  -1   59.65    2.43
   5   6   1   57.57    2.48
  -5   6  -1   57.52    2.45
   5  -6  -1   63.62    1.99
  -5   6  -1   58.49    2.32
  -5   6  -1   61.84    2.23
   5  -6   2   29.41    1.41
   5   6  -2   28.84    1.16
  -5  -6  -2   29.44    1.69
  -5  -6  -2   31.38    2.10
  -5  -6  -2   30.75    1.49
  -5  -6  -2   30.39    1.76
  -5  -6  -2   32.28    1.61
   5  -6   2   31.51    1.79
  -5  -6  -2   31.07    1.52
  -5   6  -2   31.97    1.68
  -5   6  -2   30.94    1.86
  -5   6  -2   31.68    1.44
  -5   6  -2   30.23    1.72
  -5   6  -2   31.48    1.61
   5  -6  -2   29.15    1.17
   5   6   2   31.12    1.76
   5   6   2   24.88    2.47
  -5   6  -2   31.85    1.38
   5  -6   3    4.97    0.90
  -5  -6  -3    4.08    0.82
   5   6  -3    5.48    0.70
   5   6  -3    3.74    0.56
  -5  -6  -3    3.15    0.87
   5   6  -3    4.86    0.83
  -5  -6  -3    2.45    1.32
  -5  -6  -3    4.17    0.75
  -5  -6  -3    4.51    0.87
  -5  -6  -3    5.70    0.96
  -5   6  -3    4.29    0.96
  -5   6  -3    4.90    1.00
  -5   6  -3    4.57    0.96
  -5   6  -3    4.61    0.76
   5  -6  -3    4.57    0.56
  -5   6  -3    5.02    1.42
  -5   6  -3    5.46    0.79
  -5   6  -3    6.04    1.20
   5   6   3    3.37    0.79
  -5  -6  -4   21.06    2.60
   5   6  -4   26.02    1.49
  -5  -6  -4   23.34    1.82
  -5  -6  -4   25.64    1.63
   5   6  -4   25.43    1.30
  -5  -6  -4   25.42    1.64
  -5  -6  -4   25.58    1.97
  -5   6  -4   28.49    2.11
   5  -6  -4   23.42    1.28
  -5   6  -4   27.81    2.11
  -5   6  -4   27.44    1.92
  -5   6  -4   24.33    1.52
  -5  -6  -5   16.87    1.52
   5   6  -5   15.94    1.33
  -5  -6  -5   19.19    2.49
  -5  -6  -5   20.54    2.22
  -5  -6  -5   19.43    2.22
  -5   6  -5   18.57    2.15
  -5   6  -5   17.68    1.65
  -5   6  -5   17.14    2.19
  -5   6  -5   15.15    1.31
  -5   6  -5   17.66    2.50
  -5  -6  -6   23.90    1.64
  -5  -6  -6   23.73    1.62
  -5   6  -6   24.11    1.62
  -5   6  -6   24.52    1.51
  -5   6  -6   25.39    1.76
  -5  -6  -7    0.16    0.67
  -5   6  -7    0.17    0.65
  -5   6  -7   -0.05    0.69
  -6  -6   0   -0.01    0.54
  -6  -6   0    0.90    0.36
  -6   6   0    0.65    0.60
  -6   6   0    0.52    0.49
  -6   6   0    0.54    0.30
   6   6   0   -0.46    0.69
   6  -6   0    1.18    0.55
   6  -6   1   27.94    1.36
   6  -6   1   30.10    1.41
   6   6  -1   30.06    1.32
  -6   6   1   28.98    1.63
  -6  -6  -1   29.41    1.73
   6  -6   1   31.84    1.83
  -6   6   1   29.45    1.37
   6   6  -1   25.48    2.04
  -6  -6  -1   32.70    1.67
  -6  -6  -1   30.12    1.43
  -6  -6  -1   28.87    1.53
   6   6   1   31.14    1.38
  -6   6  -1   29.59    1.66
  -6   6  -1   28.28    1.77
  -6   6  -1   25.39    1.42
  -6   6  -1   30.13    1.46
   6  -6  -1   26.56    1.35
   6   6   1   30.25    1.84
  -6  -6   1   30.02    1.41
  -6   6  -1   29.69    1.66
   6  -6  -1   31.44    1.28
  -6   6  -1   28.46    1.72
  -6  -6  -2   11.97    1.07
  -6  -6  -2   11.52    1.30
   6  -6   2   12.87    1.45
   6   6  -2   11.38    0.78
  -6  -6  -2   11.18    1.02
   6  -6   2   10.66    0.96
  -6  -6  -2   12.37    1.56
  -6  -6  -2   11.36    1.20
  -6  -6  -2   11.61    0.97
  -6   6  -2   13.20    1.15
  -6   6  -2   14.46    1.71
  -6   6  -2   11.54    1.29
  -6   6  -2   13.33    1.56
  -6   6  -2   11.12    1.34
   6   6   2   11.68    0.94
  -6   6  -2   11.60    0.93
  -6   6  -2   12.31    0.98
   6   6   2   11.24    1.31
   6   6  -3   37.74    1.52
  -6  -6  -3   42.76    2.19
   6  -6   3   35.09    2.48
  -6  -6  -3   42.01    1.95
  -6  -6  -3   41.55    2.00
   6   6  -3   40.86    1.66
  -6  -6  -3   39.59    2.19
  -6  -6  -3   43.85    2.50
  -6   6  -3   45.10    1.94
   6  -6  -3   44.18    1.66
  -6   6  -3   44.09    1.98
  -6   6  -3   44.93    2.52
  -6   6  -3   42.76    2.31
   6   6   3   43.39    2.27
  -6   6  -3   43.53    2.65
  -6   6  -3   42.37    2.30
  -6   6  -3   50.06    3.26
  -6  -6  -4    5.48    0.99
   6   6  -4    5.22    0.71
  -6  -6  -4    4.88    1.25
  -6  -6  -4    4.90    1.53
   6   6  -4    6.76    0.97
   6  -6   4    5.65    0.59
  -6  -6  -4    6.85    1.97
  -6  -6  -4    4.81    1.32
  -6  -6  -4    5.09    1.17
  -6   6  -4    5.09    1.59
  -6   6  -4    7.01    1.28
  -6   6  -4    6.80    1.95
   6  -6  -4    6.13    0.77
  -6   6  -4    5.28    0.94
  -6   6  -4    4.00    0.95
  -6   6  -4    5.25    2.10
   6   6  -5    7.69    0.92
  -6  -6  -5    5.68    1.83
  -6  -6  -5   10.94    2.07
  -6  -6  -5    8.23    1.53
  -6  -6  -5    6.91    1.11
  -6  -6  -5    7.27    1.09
  -6   6  -5    1.63    2.03
  -6   6  -5    8.09    1.10
  -6   6  -5    5.43    2.02
  -6   6  -5    9.17    1.16
  -6   6  -5    8.01    1.31
  -6   6  -5    6.83    1.66
  -6  -6  -6    6.10    1.03
  -6  -6  -6    8.43    1.32
  -6  -6  -6    6.46    1.27
  -6   6  -6    6.02    1.01
  -6   6  -6    7.92    0.99
   7  -6   0  105.64    3.43
  -7  -6   0  100.64    3.58
   7   6   0  103.04    4.04
  -7   6   0  103.01    3.55
   7   6   0  105.63    3.37
   7  -6   0  100.41    3.33
  -7   6   0  106.29    3.69
  -7   6   1   14.95    1.05
  -7  -6  -1   15.86    1.06
   7  -6   1   16.29    1.71
  -7  -6  -1   14.12    1.38
   7  -6   1   14.09    1.01
   7  -6   1   14.34    1.09
  -7   6   1   13.33    1.25
   7   6  -1   14.74    0.98
  -7  -6  -1   14.99    1.49
   7  -6  -1   13.16    1.02
  -7   6  -1   11.02    1.39
  -7   6  -1   12.08    1.15
   7  -6  -1   13.22    0.89
  -7   6  -1   16.10    1.05
  -7   6  -1   13.43    1.28
   7   6   1   14.44    0.99
  -7  -6   1   14.39    1.05
  -7   6  -1   13.19    1.32
   7   6   1   14.73    1.60
  -7  -6  -2    1.29    0.96
   7  -6   2    2.35    0.64
   7   6  -2    3.11    0.60
   7  -6   2    2.55    0.68
  -7  -6  -2    2.43    0.97
  -7  -6  -2    2.34    0.98
  -7  -6  -2    2.47    0.72
  -7  -6  -2    2.76    1.01
  -7  -6  -2    2.48    0.73
   7  -6   2    1.48    0.83
  -7   6  -2    1.98    0.73
  -7   6  -2    2.27    1.13
  -7   6  -2    3.85    1.18
   7   6   2    1.86    0.86
  -7   6  -2    1.37    0.63
   7  -6  -2    1.78    0.49
  -7   6  -2    3.95    1.18
  -7   6  -2    2.04    0.72
   7   6   2    1.74    0.62
   7  -6  -2    2.67    0.77
  -7  -6  -3   19.57    1.91
  -7  -6  -3   20.99    2.06
   7   6  -3   20.48    1.10
   7   6  -3   22.41    1.27
  -7  -6  -3   25.75    2.43
  -7  -6  -3   21.49    1.42
  -7  -6  -3   20.66    1.41
   7  -6   3   22.47    1.84
  -7   6  -3   23.40    1.49
  -7   6  -3   22.03    1.66
  -7   6  -3   19.39    2.22
  -7   6  -3   21.35    1.34
  -7   6  -3   17.85    2.02
  -7   6  -3   24.08    2.28
   7   6   3   23.11    1.75
   7  -6  -3   25.40    1.36
  -7   6  -3   26.09    2.41
  -7  -6  -4   10.85    1.95
   7  -6   4    9.88    1.04
  -7  -6  -4    8.15    1.71
  -7  -6  -4   11.00    1.54
  -7  -6  -4    9.25    1.22
   7   6  -4    9.86    0.92
   7   6  -4   13.48    1.32
  -7  -6  -4   10.66    2.03
   7   6  -4   10.40    0.97
  -7   6  -4    7.58    1.29
   7   6   4    9.59    0.86
  -7   6  -4   13.54    1.39
   7  -6  -4   10.38    1.00
  -7   6  -4   11.32    2.09
  -7   6  -4   10.94    1.66
  -7   6  -4    8.16    1.89
  -7   6  -4   11.96    2.22
  -7  -6  -5    0.91    0.82
  -7  -6  -5   -0.58    1.03
  -7  -6  -5    0.52    0.74
  -7   6  -5    0.75    0.92
  -7   6  -5    1.25    1.34
  -7   6  -5    0.99    0.76
  -7   6  -5    1.04    0.72
  -7  -6  -6    5.75    0.86
  -7  -6  -6    6.91    1.11
  -7   6  -6    4.45    0.72
  -7   6  -6    4.23    1.39
  -7   6  -6    1.66    0.71
   8   6   0   69.71    3.36
   8   6   0   63.45    2.48
  -8   6   0   66.10    2.79
   8  -6   0   68.32    2.58
   8  -6   0   69.20    3.68
   8  -6   0   63.84    2.46
  -8  -6  -1    4.16    0.99
   8  -6   1    6.18    0.86
  -8   6   1    4.78    0.72
  -8   6   1    5.02    1.09
   8  -6   1    5.49    1.26
  -8  -6  -1    4.28    0.67
  -8  -6   1    4.08    0.69
   8   6   1    4.17    1.22
  -8   6  -1    3.30    0.96
  -8   6  -1    3.12    0.57
  -8   6  -1    4.42    1.04
   8  -6  -1    4.25    0.77
  -8   6  -1    5.93    1.13
  -8  -6  -2   14.46    1.24
   8  -6   2   13.84    1.23
  -8  -6  -2   15.03    1.88
   8  -6   2   15.39    1.89
   8  -6   2   13.56    1.18
  -8  -6  -2   17.52    1.91
   8   6  -2   13.50    1.05
   8   6   2   14.53    1.18
  -8   6  -2   15.47    1.50
  -8   6  -2   12.78    2.40
  -8   6  -2   15.06    1.68
   8   6   2   16.56    1.87
   8  -6  -2   14.42    1.01
  -8   6  -2   14.40    1.66
   8  -6  -2   13.53    1.29
  -8   6  -2   14.71    1.27
  -8  -6  -3   27.16    2.37
  -8  -6  -3   26.28    1.92
  -8  -6  -3   26.11    2.59
   8   6  -3   25.11    1.44
   8  -6   3   25.72    2.09
   8   6  -3   25.20    1.33
  -8  -6  -3   25.94    1.55
  -8  -6  -3   25.91    1.78
  -8   6  -3   26.43    1.80
  -8   6  -3   19.96    2.55
  -8   6  -3   22.38    1.46
   8  -6  -3   26.78    1.37
  -8   6  -3   23.77    1.71
  -8   6  -3   25.91    2.35
   8   6   3   23.73    1.90
  -8  -6  -4    2.82    1.56
  -8  -6  -4    1.02    0.97
  -8  -6  -4    0.97    1.46
   8   6  -4    1.35    0.60
  -8  -6  -4    1.40    0.80
  -8  -6  -4    0.49    0.85
  -8   6  -4   -2.48    4.55
  -8   6  -4    0.80    1.33
  -8   6  -4    0.16    0.69
   8  -6  -4    2.05    0.71
  -8   6  -4    1.13    0.90
  -8   6  -4    0.70    0.81
  -8   6  -4   -0.40    1.36
  -8  -6  -5    4.70    1.29
  -8  -6  -5    4.42    1.05
  -8  -6  -5    5.10    0.87
  -8  -6  -5    3.94    2.30
  -8   6  -5    4.82    1.11
  -8   6  -5    5.01    1.02
  -8   6  -5    4.46    1.30
  -8   6  -5    6.81    2.15
  -8   6  -5    5.79    0.89
  -8  -6  -6    0.14    0.70
  -8   6  -6    0.67    0.66
  -8   6  -6    0.83    0.60
  -9   6   0    0.86    0.77
   9  -6   0    0.44    0.55
  -9   6   0   -0.04    0.70
   9  -6   0    0.00    1.21
   9   6   0    1.86    1.43
   9  -6   0   -0.08    0.49
   9   6   0   -0.48    0.41
  -9  -6   0    0.38    0.72
   9  -6   1    6.10    1.47
  -9  -6  -1    4.66    1.10
  -9   6   1    2.68    0.97
  -9   6   1    5.13    0.66
   9   6  -1    2.90    0.72
   9  -6   1    3.97    0.98
   9  -6   1    4.36    0.83
   9  -6  -1    4.78    0.83
  -9   6  -1    2.61    0.93
   9   6   1    2.41    0.68
  -9  -6   1    3.79    0.65
   9  -6  -1    2.96    0.69
   9   6   1    4.08    1.44
  -9   6  -1    3.83    0.98
   9   6  -2    0.63    0.57
  -9  -6  -2    0.36    0.86
   9  -6   2    0.07    0.75
  -9  -6  -2    2.27    1.06
  -9  -6  -2    1.48    0.83
   9  -6   2    0.60    0.66
   9  -6   2    0.79    1.04
  -9   6  -2    0.23    1.01
   9  -6  -2    1.76    0.60
  -9   6  -2    1.26    1.07
  -9   6  -2    1.36    1.00
  -9   6  -2    2.24    0.82
   9   6   2    1.54    0.78
   9   6   2    2.07    1.15
   9  -6  -2    1.42    0.72
   9   6   2    1.22    0.78
  -9  -6  -3   17.94    2.15
  -9  -6  -3   13.45    1.83
   9   6  -3   15.50    1.32
   9  -6   3   11.06    2.05
  -9  -6  -3   15.48    1.67
   9   6  -3   13.97    1.26
  -9   6  -3   14.01    1.60
   9   6   3   14.14    2.21
  -9   6  -3   19.70    2.26
   9  -6  -3   16.54    1.48
  -9   6  -3   16.30    1.58
  -9   6  -3   13.41    1.87
   9  -6  -3   15.23    1.19
   9   6  -4    1.55    0.75
  -9  -6  -4    1.24    0.88
  -9  -6  -4    1.11    0.97
   9  -6   4    2.54    1.04
  -9  -6  -4    2.69    2.06
  -9   6  -4    1.31    0.97
  -9   6  -4    2.25    0.95
   9   6   4    0.49    1.58
  -9   6  -4   -0.02    1.40
   9  -6  -4   -1.00    0.75
  -9  -6  -5    3.92    1.73
  -9  -6  -5    5.83    1.11
  -9   6  -5    3.77    0.88
  -9   6  -5    3.81    0.81
  -9   6  -5    9.34    1.86
 -10   6   0    0.13    1.02
  10  -6   0    1.65    0.70
  10  -6   0    2.36    1.65
  10   6   0    1.56    1.73
  10  -6   0    1.84    0.66
 -10   6   0    2.21    1.08
  10   6   0    1.08    0.61
  10  -6   1    7.61    1.09
  10  -6   1    6.62    1.61
  10   6  -1    5.60    0.88
  10  -6   1    5.91    0.94
 -10  -6  -1    6.41    1.20
 -10   6  -1    6.29    1.12
  10   6   1    6.24    1.01
  10  -6  -1    8.44    1.10
  10   6   1    7.54    1.83
  10  -6  -1    5.45    0.91
 -10   6  -1    7.05    1.26
  10  -6   2    4.10    1.15
 -10  -6  -2    1.35    0.97
  10  -6   2    3.59    2.13
 -10  -6  -2    3.25    0.70
  10   6  -2    0.71    0.71
  10  -6   2    2.33    0.77
 -10   6  -2    1.44    1.02
  10  -6  -2    3.19    0.80
  10   6   2    3.20    0.88
 -10   6  -2    3.52    0.65
  10   6   2    3.61    1.11
  10  -6  -2    2.78    0.87
 -10   6  -2    2.44    0.88
  10   6   2    0.97    1.69
 -10  -6  -3    6.66    1.02
 -10  -6  -3    5.29    1.43
  10   6  -3    4.08    0.79
  10  -6   3    7.19    1.48
 -10  -6  -3    5.58    1.15
 -10   6  -3    8.30    1.58
 -10   6  -3    6.62    1.00
  10  -6  -3    5.96    1.04
  10   6   3    3.96    1.25
 -10   6  -3    4.67    1.13
  10  -6  -3    5.30    0.84
 -10  -6  -4    1.89    1.29
 -10  -6  -4    3.19    1.07
  10   6  -4    4.55    0.82
 -10  -6  -4    4.08    1.77
  10  -6  -4    3.42    0.87
 -10   6  -4    2.52    1.19
 -10   6  -4    2.45    1.44
 -10   6  -4    2.46    0.86
 -10  -6  -5    2.58    0.86
 -10  -6  -5    3.94    1.62
 -10   6  -5    4.75    0.92
 -10   6  -5    1.84    1.49
 -11   6   0    1.26    0.72
  11  -6   0   -1.63    2.02
  11   6   0   -0.74    2.07
 -11  -6   0    0.11    0.75
 -11   6   0    0.40    0.96
  11  -6   0    0.76    0.64
  11  -6   1   12.17    1.34
 -11  -6  -1    7.64    1.30
  11  -6   1   11.75    1.42
  11   6  -1    8.92    1.11
  11  -6  -1    8.31    1.13
 -11   6  -1    8.27    1.31
  11  -6  -1    9.71    1.18
 -11   6  -1    8.52    1.30
  11   6   1    9.40    1.29
  11  -6   2    7.13    1.72
  11  -6   2    7.13    1.34
 -11  -6  -2    5.78    1.26
  11  -6   2    8.06    1.10
  11   6  -2    6.22    0.94
  11   6   2    8.24    1.74
 -11   6  -2    6.72    1.38
  11   6   2    9.77    1.43
 -11   6  -2    6.02    1.18
  11   6   2    8.85    1.23
  11  -6  -2    8.14    1.13
  11  -6  -2    7.66    1.09
  11  -6   3    3.65    1.41
 -11  -6  -3    5.17    1.31
 -11   6  -3    2.99    1.04
 -11   6  -3    4.65    1.11
  11  -6  -3    5.16    1.00
  11   6   3    6.14    1.38
 -11  -6  -4   -1.40    1.12
 -11  -6  -4    2.25    1.24
 -11   6  -4    1.13    0.69
 -11   6  -4    1.96    1.12
 -11   6  -5    0.64    0.62
  12   6   0    4.03    0.95
  12  -6   0   -0.06    3.80
  12  -6   0    4.03    0.95
  12  -6   0    4.78    0.92
  12   6   0    6.81    2.92
  12  -6   1    3.63    1.01
  12   6  -1    5.33    0.96
  12  -6   1    5.26    2.10
 -12   6  -1    6.92    2.02
  12  -6  -1    4.18    0.94
  12   6   1    7.14    1.98
 -12   6  -1    3.69    1.19
  12  -6  -1    4.21    1.31
  12   6   1    4.91    1.07
  12  -6   2    3.09    0.92
  12  -6   2    1.10    1.51
 -12  -6  -2    2.40    1.00
  12   6   2    1.22    1.31
 -12   6  -2    2.91    1.06
 -12   6  -2    3.61    1.06
  12  -6  -2    2.54    0.73
  12   6   2    3.47    0.97
 -12  -6  -3    1.23    1.11
  12   6  -3    0.53    0.69
 -12   6  -3   -0.54    0.67
  12  -6  -3    2.17    0.86
 -12   6  -3    1.67    1.00
  12  -6  -3    0.28    0.74
 -12  -6  -4    2.81    1.03
 -12   6  -4    2.49    0.95
 -12   6  -4    2.29    0.77
  13  -6   0   17.28    1.50
  13   6   0   18.14    1.45
  13  -6   0   18.23    1.39
  13   6  -1    1.85    0.82
  13  -6   1    2.67    1.11
  13   6   1    1.22    1.05
  13  -6  -1    0.82    0.75
  13  -6  -1    0.67    0.65
  13   6   1    0.35    0.71
  13   6  -2    2.33    0.72
  13  -6  -2    2.41    0.76
 -13   6  -2    4.14    1.53
 -13   6  -2    1.42    0.97
  13  -6  -2    3.02    0.90
 -13  -6  -3    3.55    0.89
  13   6  -3    1.61    0.95
 -13   6  -3    3.31    1.80
  13  -6  -3    4.88    0.93
 -13   6  -3    1.90    0.82
  14   6   0   -0.28    0.62
  14  -6   0   -0.44    0.54
  14   6  -1    0.06    0.57
  14  -6   1   -1.23    1.24
  14  -6  -1   -0.48    0.55
  14   6   1   -1.04    0.79
  14   6  -2    0.32    0.77
  14  -6  -2    0.48    0.71
   0   7   0    0.33    0.43
   0   7   0    0.03    0.33
   0   7   0    0.04    0.41
   0  -7   0    0.39    0.33
   0   7   1   79.24    3.10
   0   7  -1   85.95    2.61
   0   7  -1   85.45    2.50
   0  -7  -1   84.29    2.56
   0   7   1   81.82    2.64
   0  -7  -1   89.89    2.61
   0  -7  -1   84.59    2.65
   0   7   1   86.43    2.55
   0   7  -1   87.07    2.74
   0   7  -1   85.20    2.78
   0  -7  -2   60.60    2.19
   0  -7  -2   63.75    2.06
   0   7  -2   61.65    2.37
   0   7  -2   62.56    2.26
   0  -7  -2   62.62    2.10
   0  -7  -2   64.88    2.30
   0  -7   2   62.46    1.85
   0   7  -2   63.06    2.01
   0   7  -2   61.26    2.13
   0   7  -3   26.60    1.39
   0   7  -3   31.56    1.63
   0   7  -3   28.00    1.88
   0  -7  -3   29.23    1.37
   0   7  -3   31.13    1.24
   0  -7  -3   29.90    1.50
   0  -7  -3   31.65    1.39
   0  -7  -3   29.04    1.64
   0   7  -3   31.95    1.48
   0  -7  -3   27.47    1.65
   0   7  -4   10.24    1.25
   0   7  -4    8.14    1.06
   0  -7  -4    9.86    1.01
   0   7  -4   11.47    1.35
   0  -7  -4   10.39    1.14
   0  -7  -4    9.18    0.99
   0   7  -4    8.57    0.99
   0   7  -4    8.54    0.77
   0  -7  -4    8.38    1.08
   0   7  -5   21.92    1.93
   0  -7  -5   20.40    1.50
   0   7  -5   21.52    1.74
   0   7  -5   18.76    1.46
   0  -7  -5   23.33    1.79
   0   7  -5   21.67    1.89
   0  -7  -5   19.18    1.49
   0  -7  -5   20.80    1.70
   0   7  -6   13.49    1.32
   0   7  -6   10.38    1.13
   0  -7  -6   10.96    1.42
   0  -7  -6    9.94    1.26
   0   7  -7    3.46    0.79
   0   7  -7    4.18    0.81
   0  -7  -7    2.01    0.74
   0   7  -7    3.53    0.68
   0  -7  -7    2.65    0.75
   1   7   0  110.74    3.43
  -1  -7   0  112.04    3.28
   1   7   0  111.58    3.20
  -1   7   0  113.17    3.35
   1  -7   0  113.12    3.35
   1   7   0  117.60    3.28
  -1   7   0  114.21    3.29
   1  -7   0  110.77    3.22
  -1   7   0  109.39    3.35
   1   7   0  112.42    3.37
  -1  -7  -1  483.98   12.94
   1   7  -1  477.24   12.69
   1   7  -1  493.17   12.80
   1   7  -1  479.90   12.91
  -1  -7  -1  481.71   12.88
  -1   7   1  498.60   12.74
  -1   7   1  496.26   12.82
   1   7  -1  479.10   13.01
  -1  -7  -1  502.03   12.86
   1   7   1  477.70   12.85
   1   7   1  499.84   13.01
   1  -7  -1  496.21   12.96
  -1   7  -1  486.59   13.05
  -1   7  -1  502.06   12.95
   1   7   1  497.82   12.98
   1  -7  -1  473.86   12.78
  -1   7  -1  493.97   13.05
  -1   7  -1  485.61   12.93
   1   7  -2  159.01    5.05
  -1  -7  -2  170.57    4.83
  -1  -7  -2  167.73    4.79
  -1  -7  -2  168.55    4.96
   1   7  -2  161.67    4.87
   1   7  -2  168.12    4.75
   1   7  -2  163.09    4.60
  -1  -7  -2  169.69    4.91
   1  -7   2  171.69    4.76
   1   7   2  167.82    4.76
   1  -7  -2  167.37    4.76
  -1   7  -2  166.06    4.81
  -1   7  -2  168.54    4.96
   1  -7  -2  158.53    4.63
  -1   7  -2  162.57    4.61
   1  -7  -2  159.62    4.54
  -1   7  -2  163.07    4.95
   1   7   2  163.12    4.72
  -1  -7  -3  118.64    3.77
  -1  -7  -3  118.84    3.96
   1   7  -3  113.86    3.80
   1   7  -3  115.86    3.42
   1   7  -3  128.15    3.73
  -1  -7  -3  113.16    3.90
  -1  -7  -3  118.50    3.80
  -1  -7  -3  116.69    3.91
  -1   7  -3  119.39    4.11
   1  -7  -3  117.98    3.57
  -1   7  -3  119.76    3.82
  -1   7  -3  119.34    3.51
   1  -7  -3  119.83    3.72
  -1   7  -3  112.70    3.65
  -1   7  -3  107.45    3.81
  -1   7  -3  116.83    3.96
   1   7  -4    7.41    0.67
   1   7  -4    6.98    1.06
  -1  -7  -4    8.66    1.04
   1   7  -4    7.48    0.95
   1   7  -4    6.87    0.93
  -1  -7  -4    6.82    1.05
  -1  -7  -4    6.17    0.90
  -1  -7  -4    6.93    1.01
  -1   7  -4    6.69    0.88
  -1   7  -4    6.92    0.78
   1  -7  -4    6.24    0.80
  -1   7  -4    7.12    1.04
  -1   7  -4    6.13    1.10
   1  -7  -4    7.37    1.11
   1  -7  -4    6.66    0.83
   1  -7  -4    5.59    0.83
  -1   7  -4    6.64    1.14
  -1  -7  -5    0.30    0.65
  -1  -7  -5    0.40    0.78
   1   7  -5    1.40    0.68
  -1  -7  -5    0.65    1.08
   1   7  -5    0.05    0.87
   1   7  -5   -0.47    0.67
  -1  -7  -5   -0.16    0.66
   1  -7  -5    0.39    0.59
   1  -7  -5    1.26    0.87
   1  -7  -5    0.57    0.78
   1  -7  -5    0.61    0.56
  -1   7  -5    1.38    1.03
  -1   7  -5   -0.34    0.94
  -1   7  -5    0.40    0.83
  -1  -7  -6    2.62    0.79
  -1  -7  -6    1.48    0.77
   1   7  -6    1.86    0.65
  -1   7  -6    1.68    0.71
  -1   7  -6    1.74    0.68
  -1   7  -6    1.19    1.12
   1  -7  -6    0.38    0.75
  -1  -7  -7   -0.02    0.64
   1   7  -7    0.32    0.82
  -1  -7  -7   -0.21    0.58
   1   7  -7    0.76    0.55
  -1   7  -7   -0.14    0.63
  -1   7  -7    0.88    0.55
  -1   7  -7    0.39    0.67
   1  -7  -7    0.22    0.82
  -2   7   0  247.25    6.66
   2   7   0  235.32    6.55
   2  -7   0  246.57    6.59
  -2  -7   0  246.47    6.73
   2   7   0  245.63    6.86
  -2   7   0  240.09    6.75
   2   7   0  257.95    6.67
  -2   7   0  232.93    6.66
   2   7  -1   30.90    1.47
  -2  -7  -1   30.46    1.39
   2   7  -1   28.21    1.31
   2  -7   1   31.91    1.24
  -2  -7  -1   32.60    1.31
  -2   7   1   31.86    1.02
  -2  -7  -1   32.58    1.33
  -2  -7  -1   31.90    1.33
   2   7  -1   32.34    1.15
  -2   7  -1   33.08    1.50
   2   7   1   32.31    1.30
   2  -7  -1   31.69    1.35
  -2   7  -1   29.48    1.34
   2   7   1   32.96    1.22
   2   7   1   32.54    1.47
  -2   7  -1   31.19    1.20
   2  -7   2   65.89    2.27
  -2  -7  -2   59.57    2.31
   2   7  -2   62.29    1.92
   2   7  -2   59.38    2.17
  -2  -7  -2   57.74    2.35
   2   7  -2   62.70    2.04
  -2  -7  -2   63.47    2.23
   2   7   2   64.17    2.26
   2   7   2   61.19    2.11
  -2   7  -2   63.86    2.45
  -2   7  -2   59.90    2.28
  -2   7  -2   61.39    2.38
   2  -7  -2   62.48    2.05
   2  -7  -2   61.68    1.96
   2   7   2   65.33    2.24
  -2  -7  -3   22.77    1.35
   2   7  -3   23.21    1.31
   2   7  -3   21.45    1.15
   2  -7   3   23.01    0.81
  -2  -7  -3   24.21    1.34
  -2  -7  -3   23.25    1.36
  -2  -7  -3   23.08    1.47
  -2   7  -3   22.05    1.41
   2  -7  -3   23.78    1.21
  -2   7  -3   24.76    1.30
   2  -7  -3   22.57    1.11
   2  -7  -3   24.48    1.06
  -2   7  -3   21.92    1.52
  -2   7  -3   23.59    1.13
  -2   7  -3   24.40    1.54
  -2  -7  -4    3.36    0.81
   2   7  -4    3.23    0.70
  -2  -7  -4    2.22    0.68
  -2  -7  -4    3.70    0.90
   2   7  -4    4.75    0.87
   2   7  -4    3.76    0.81
  -2   7  -4    1.69    0.76
  -2   7  -4    3.23    0.99
  -2   7  -4    4.80    1.06
   2  -7  -4    3.57    0.64
  -2   7  -4    2.81    0.53
  -2   7  -4    2.37    0.78
   2  -7  -4    2.12    0.57
   2  -7  -4    4.33    0.74
   2   7  -5    7.45    0.91
   2   7  -5    8.48    1.35
  -2  -7  -5    7.25    1.18
  -2  -7  -5    8.00    1.18
   2   7  -5    7.04    1.07
   2   7  -5    7.95    1.00
  -2  -7  -5    6.84    1.07
  -2  -7  -5    6.02    1.20
  -2   7  -5    7.92    1.57
  -2   7  -5    6.90    1.31
   2  -7  -5    8.77    1.35
   2  -7  -5    6.30    0.89
  -2   7  -5    6.05    0.93
   2  -7  -5    7.90    1.07
  -2  -7  -6    2.49    0.87
   2   7  -6    3.55    0.80
   2   7  -6    3.36    0.81
  -2  -7  -6    4.01    0.96
  -2   7  -6    2.81    1.07
  -2   7  -6    3.53    0.85
   2  -7  -6    4.14    1.09
   2  -7  -6    3.04    0.86
  -2   7  -6    1.97    0.75
   2   7  -7    1.38    0.89
  -2  -7  -7    1.60    0.71
  -2  -7  -7    2.02    0.73
  -2   7  -7    1.41    0.54
   2  -7  -7    0.23    0.95
  -2   7  -7    1.84    0.66
  -2   7  -7    2.16    0.75
  -3  -7   0    1.25    0.38
   3   7   0    2.17    0.46
  -3   7   0    1.58    0.41
   3  -7   0    2.52    0.43
   3   7   0    2.15    0.42
   3   7   0    2.45    0.65
  -3   7   0    1.00    0.43
  -3   7   0    2.31    0.58
  -3  -7  -1   24.80    1.30
  -3  -7  -1   25.99    1.20
   3   7  -1   25.58    1.11
   3   7  -1   26.00    1.04
  -3  -7  -1   25.88    1.19
   3   7  -1   26.71    1.46
  -3  -7  -1   26.02    1.21
   3  -7   1   24.25    1.12
  -3   7  -1   27.19    1.31
   3  -7  -1   26.30    1.06
  -3   7  -1   26.58    1.10
   3  -7  -1   25.26    1.31
   3   7   1   27.92    1.46
   3   7   1   27.43    1.13
   3   7   1   25.35    1.22
  -3   7  -1   26.45    1.30
  -3   7  -1   27.68    1.42
   3  -7   2   15.56    1.15
   3   7  -2   14.44    0.75
  -3  -7  -2   15.82    1.04
  -3  -7  -2   15.06    1.13
  -3  -7  -2   14.80    1.04
   3   7  -2   14.53    0.95
  -3  -7  -2   15.41    1.03
   3   7  -2   14.82    0.85
  -3   7  -2   15.18    1.14
  -3   7  -2   14.97    0.90
   3   7   2   16.04    1.02
   3  -7  -2   15.33    0.77
   3   7   2   16.18    1.14
  -3   7  -2   15.91    1.12
  -3   7  -2   14.55    1.25
  -3   7  -2   16.28    1.17
   3   7  -3   20.94    1.08
  -3  -7  -3   20.65    1.45
   3   7  -3   19.28    1.20
  -3  -7  -3   17.49    1.31
  -3  -7  -3   17.91    1.20
  -3  -7  -3   19.95    1.35
   3  -7   3   20.65    1.19
   3   7  -3   18.92    0.95
  -3  -7  -3   19.06    1.29
   3  -7  -3   18.41    1.20
  -3   7  -3   21.36    1.45
  -3   7  -3   20.46    1.22
   3  -7  -3   20.01    1.00
   3   7   3   19.92    1.05
  -3   7  -3   18.90    1.54
  -3   7  -3   19.17    1.40
   3   7  -4    3.96    0.70
  -3  -7  -4    2.38    0.77
   3   7  -4    4.37    0.63
  -3  -7  -4    5.29    1.13
  -3  -7  -4    3.07    0.76
   3   7  -4    3.54    0.79
  -3  -7  -4    4.66    0.95
  -3  -7  -4    3.37    0.94
  -3   7  -4    4.64    1.19
  -3   7  -4    3.40    1.00
  -3   7  -4    3.59    0.77
  -3   7  -4    4.67    0.97
   3  -7  -4    3.47    0.60
  -3   7  -4    4.56    1.14
   3  -7  -4    3.93    0.68
  -3  -7  -5   25.11    2.13
  -3  -7  -5   24.25    1.70
   3   7  -5   25.06    1.34
  -3  -7  -5   27.63    2.04
   3   7  -5   26.96    2.44
   3   7  -5   30.08    2.02
   3   7  -5   28.72    1.77
  -3   7  -5   30.39    2.46
  -3   7  -5   27.91    1.66
  -3   7  -5   29.96    2.07
   3  -7  -5   23.94    1.55
  -3   7  -5   33.52    3.12
   3   7  -6    3.40    0.88
  -3  -7  -6    2.57    0.97
  -3  -7  -6    4.56    1.03
   3   7  -6    3.57    0.89
  -3   7  -6    3.91    1.02
  -3   7  -6    4.67    1.12
  -3   7  -6    2.99    0.79
   3  -7  -6    3.51    1.30
  -3  -7  -7    0.39    0.66
  -3  -7  -7    0.83    0.61
  -3   7  -7    1.46    0.57
  -3   7  -7    1.47    0.68
  -4   7   0    6.79    0.77
   4   7   0    5.77    0.91
  -4   7   0    6.70    0.65
  -4   7   0    5.44    0.93
  -4  -7   0    5.95    0.62
   4   7  -1   14.13    0.80
  -4  -7  -1   15.44    0.99
  -4  -7  -1   14.71    0.94
   4   7  -1   16.20    1.30
  -4  -7  -1   14.05    0.93
  -4  -7  -1   13.71    1.01
  -4   7  -1   13.41    0.97
   4   7   1   15.59    1.01
  -4   7  -1   13.30    0.84
   4  -7  -1   15.90    0.83
  -4   7  -1   15.13    1.10
  -4   7  -1   16.42    1.26
  -4   7  -1   15.37    1.10
   4   7   1   15.10    1.22
   4  -7   2    8.86    1.04
  -4  -7  -2   11.70    1.05
  -4   7   2    9.27    1.04
   4  -7   2   10.20    0.87
   4   7  -2    8.02    0.62
  -4  -7  -2    8.28    0.92
  -4  -7  -2    9.44    0.97
  -4  -7  -2    7.80    1.01
   4   7  -2    8.92    0.71
  -4  -7  -2    9.26    0.99
  -4   7  -2    9.28    0.79
  -4   7  -2    9.30    1.04
  -4   7  -2   10.09    0.83
  -4   7  -2   10.02    1.25
   4   7   2    8.89    0.96
  -4   7  -2    9.06    1.07
   4   7   2    8.07    1.00
   4  -7  -2    8.68    0.64
   4   7   2    7.84    0.74
  -4   7  -2    9.73    1.08
  -4  -7   2    8.57    0.70
  -4  -7  -3   47.00    2.12
   4   7  -3   51.54    2.26
   4   7  -3   48.42    1.97
  -4  -7  -3   49.09    2.20
   4   7  -3   48.47    1.98
  -4  -7  -3   48.61    2.11
  -4  -7  -3   46.23    2.19
  -4  -7  -3   41.91    2.79
   4  -7   3   48.55    2.15
  -4   7  -3   47.02    2.24
  -4   7  -3   47.92    2.29
  -4   7  -3   48.89    2.32
  -4   7  -3   48.81    2.07
   4  -7  -3   47.59    1.67
  -4   7  -3   41.97    2.89
  -4   7  -3   48.06    1.93
  -4  -7  -4   52.17    2.55
  -4  -7  -4   50.44    2.64
  -4  -7  -4   50.69    2.73
  -4  -7  -4   51.02    2.37
   4   7  -4   49.76    2.05
   4   7  -4   52.57    2.26
  -4  -7  -4   50.20    2.39
  -4   7  -4   52.92    2.28
  -4   7  -4   53.33    2.96
  -4   7  -4   51.92    2.58
  -4   7  -4   50.53    2.71
  -4   7  -4   51.37    2.20
   4  -7  -4   50.67    1.90
  -4   7  -4   50.05    2.75
  -4  -7  -5   25.71    1.83
  -4  -7  -5   27.83    2.51
  -4  -7  -5   25.36    2.35
   4   7  -5   24.28    1.61
   4   7  -5   23.70    1.34
  -4  -7  -5   24.80    2.31
   4   7  -5   22.46    1.89
  -4   7  -5   25.95    2.94
   4  -7  -5   26.48    1.57
  -4   7  -5   26.91    2.14
  -4   7  -5   21.16    2.23
  -4   7  -5   28.17    2.63
  -4   7  -5   25.93    1.64
  -4   7  -5   25.19    1.84
  -4  -7  -6    3.90    0.96
  -4  -7  -6    5.19    0.98
   4   7  -6    4.10    0.81
  -4   7  -6    4.93    1.00
   4  -7  -6    5.91    1.04
  -4   7  -6    3.82    1.01
  -4   7  -6    4.28    0.78
  -4  -7  -7    0.77    0.56
  -4  -7  -7    0.65    0.74
  -4   7  -7    0.96    0.58
  -4   7  -7    0.06    0.46
  -5  -7   0   24.36    1.07
  -5   7   0   21.95    1.33
  -5   7   0   24.47    1.43
  -5   7   0   24.24    1.38
   5   7   0   24.02    1.57
   5   7   0   23.28    1.53
   5  -7   0   23.36    1.20
  -5  -7   0   21.46    1.40
   5  -7   1   64.92    2.34
   5   7  -1   69.08    2.88
  -5   7   1   68.34    2.61
  -5  -7  -1   67.63    2.43
  -5  -7  -1   63.43    2.72
  -5  -7  -1   63.35    2.69
   5  -7   1   69.20    2.37
  -5   7  -1   65.86    2.69
   5   7   1   71.89    2.43
   5  -7  -1   71.29    2.26
  -5   7  -1   67.33    2.58
  -5  -7   1   68.49    2.42
   5   7   1   68.61    2.78
  -5   7  -1   63.39    2.41
  -5   7  -1   67.88    2.61
  -5  -7  -2   24.80    1.57
   5  -7   2   23.29    1.27
  -5  -7  -2   21.23    1.30
   5  -7   2   25.28    1.62
  -5  -7  -2   23.84    1.31
   5   7  -2   22.80    1.06
  -5  -7  -2   25.81    1.46
  -5  -7  -2   21.86    1.36
  -5  -7  -2   22.99    1.73
   5   7   2   22.45    1.57
  -5   7  -2   23.31    1.23
  -5   7  -2   24.18    1.55
   5   7   2   27.16    1.74
  -5   7  -2   23.02    1.65
  -5   7  -2   23.94    1.46
  -5  -7   2   22.39    0.84
  -5   7  -2   22.64    1.20
  -5   7  -2   23.02    1.73
  -5   7  -2   24.72    1.53
   5   7  -3   44.29    1.87
  -5  -7  -3   39.34    2.82
  -5  -7  -3   40.35    1.95
  -5  -7  -3   40.24    2.06
   5   7  -3   44.04    1.70
   5  -7   3   45.59    2.25
   5   7  -3   44.32    1.60
  -5  -7  -3   44.51    2.05
  -5  -7  -3   44.11    2.38
  -5   7  -3   47.09    2.64
   5  -7  -3   44.94    1.63
   5   7   3   43.93    2.09
  -5   7  -3   46.92    2.59
  -5   7  -3   44.95    2.77
  -5   7  -3   43.71    1.88
  -5   7  -3   42.76    2.26
  -5   7  -3   43.82    1.94
  -5   7  -3   47.16    2.25
  -5  -7  -4  116.69    4.73
   5   7  -4  126.79    4.92
  -5  -7  -4  120.51    4.24
   5   7  -4  119.70    3.81
  -5  -7  -4  112.37    4.72
   5  -7  -4  111.13    3.81
  -5   7  -4   98.42    4.79
  -5   7  -4  114.04    4.28
  -5   7  -4  119.49    4.88
  -5   7  -4  121.45    3.93
  -5   7  -4  121.19    3.98
  -5  -7  -5   20.84    1.65
  -5  -7  -5   22.00    3.09
   5   7  -5   19.71    1.23
  -5  -7  -5   22.33    3.02
  -5   7  -5   19.83    1.67
  -5   7  -5   16.12    2.96
   5  -7  -5   19.33    1.45
  -5   7  -5   22.05    1.51
  -5   7  -5   20.43    1.49
  -5   7  -5   17.68    3.00
  -5  -7  -6   17.90    1.41
   5   7  -6   15.29    1.61
  -5  -7  -6   17.28    1.48
  -5   7  -6   11.47    1.32
  -5   7  -6   18.95    1.45
  -5   7  -6   16.07    1.24
  -5  -7  -7    0.55    0.69
  -5  -7  -7    0.64    0.56
  -5   7  -7    1.41    0.68
  -5   7  -7    2.04    0.62
   6  -7   0    1.81    0.58
  -6   7   0    1.87    0.54
   6  -7   0    1.48    0.49
  -6   7   0    0.61    0.57
  -6  -7   0    2.17    0.71
  -6   7   0    1.48    0.34
   6   7   0    1.95    0.49
   6   7   0    1.47    0.84
  -6   7   0    2.11    0.72
  -6  -7   0    1.33    0.38
  -6   7   0    0.90    0.56
   6  -7   1   12.79    0.93
   6  -7   1   14.00    1.00
  -6   7   1   14.01    1.05
  -6  -7  -1   12.63    1.25
   6  -7   1   12.84    1.67
  -6  -7  -1   13.40    1.16
  -6  -7  -1   13.28    1.00
   6   7  -1   14.22    1.67
  -6   7   1   14.19    1.40
   6   7  -1   14.63    0.93
  -6  -7  -1   12.53    1.20
  -6   7  -1   13.79    1.11
  -6   7  -1   13.27    1.03
   6   7   1   14.95    1.54
  -6  -7   1   15.28    1.02
  -6   7  -1   13.72    1.41
  -6   7  -1   14.61    1.27
  -6   7  -1   11.34    1.18
  -6   7  -1   13.74    1.31
   6  -7  -1   14.42    1.08
   6  -7  -1   13.54    0.87
  -6  -7  -2   10.82    1.52
  -6  -7  -2    9.34    1.21
   6   7  -2    7.71    0.72
   6  -7   2    9.19    1.26
   6  -7   2   11.16    1.03
   6  -7   2    9.96    0.91
  -6  -7  -2    9.55    1.06
  -6  -7  -2    8.85    1.10
  -6  -7  -2    9.37    1.27
  -6  -7  -2    9.98    1.00
  -6   7  -2    6.83    1.17
   6  -7  -2   10.52    1.04
  -6   7  -2    8.35    1.08
   6   7   2    9.10    1.10
   6   7   2   12.47    1.22
   6   7   2   11.88    1.40
   6  -7  -2   10.05    0.76
  -6   7  -2   10.72    1.47
  -6   7  -2    9.67    0.90
  -6   7  -2   10.49    0.90
  -6   7  -2    8.22    1.27
  -6   7  -2    9.19    1.02
  -6  -7  -3   12.90    1.80
  -6  -7  -3   11.07    1.18
  -6  -7  -3    9.16    1.94
   6  -7   3    9.07    1.35
   6   7  -3    8.08    0.79
   6   7  -3   10.53    1.01
   6   7  -3    8.39    0.85
  -6  -7  -3   12.67    1.63
  -6  -7  -3   11.03    1.41
  -6   7  -3    9.42    1.38
   6  -7  -3   10.56    0.83
  -6   7  -3    6.35    1.35
  -6   7  -3   14.38    1.83
  -6   7  -3    7.63    1.04
  -6   7  -3   10.39    1.01
  -6   7  -3    9.64    1.34
   6   7   3   10.52    1.29
   6   7  -4   17.12    1.07
   6   7  -4   18.87    1.26
  -6  -7  -4   17.81    2.00
  -6  -7  -4   17.67    1.48
  -6  -7  -4   18.88    2.47
  -6  -7  -4   15.29    1.96
   6   7  -4   20.51    1.90
  -6  -7  -4   17.36    1.48
  -6  -7  -4   21.51    1.81
  -6   7  -4   18.98    1.44
  -6   7  -4   22.99    2.18
  -6   7  -4   18.53    1.38
  -6   7  -4   24.84    2.74
  -6   7  -4   19.41    1.69
  -6   7  -4   18.45    3.08
  -6   7  -4   21.90    2.72
   6  -7  -4   19.42    1.23
  -6  -7  -5    9.53    1.26
  -6  -7  -5   10.95    1.26
   6   7  -5   12.05    1.06
  -6  -7  -5   14.25    1.89
  -6   7  -5   11.61    1.47
   6  -7  -5   10.78    1.17
  -6   7  -5   13.61    1.43
  -6   7  -5   11.13    1.75
  -6   7  -5   12.17    1.20
  -6  -7  -6    1.18    0.68
  -6  -7  -6   -0.05    0.85
  -6  -7  -6    0.62    0.74
  -6   7  -6    1.05    0.71
  -6   7  -6    0.30    0.81
  -6   7  -6    0.74    0.59
  -6   7  -6    2.52    1.00
  -7   7   0   23.70    1.50
  -7   7   0   22.61    1.92
   7  -7   0   24.69    1.27
   7   7   0   24.58    1.29
  -7  -7   0   24.20    1.51
   7   7   0   22.72    1.82
   7  -7   0   21.39    1.33
   7  -7   1   37.62    2.24
  -7   7   1   40.20    1.74
  -7   7   1   39.73    2.06
   7  -7   1   39.82    1.79
  -7   7   1   35.64    2.13
   7   7  -1   38.90    2.73
   7   7  -1   42.78    1.72
  -7  -7  -1   39.57    1.74
   7  -7   1   38.85    1.74
   7   7   1   34.78    2.18
   7  -7  -1   38.69    1.76
  -7   7  -1   44.28    2.33
  -7   7  -1   39.76    2.42
  -7   7  -1   41.71    1.75
  -7   7  -1   34.91    1.79
   7  -7  -1   40.27    1.67
  -7  -7   1   39.78    1.75
   7  -7   2    5.72    0.80
   7  -7   2    4.51    1.11
  -7  -7  -2    6.71    1.18
  -7  -7  -2    4.12    0.84
  -7  -7  -2    4.91    0.83
  -7  -7  -2    3.17    1.20
  -7  -7  -2    8.44    1.40
   7  -7   2    5.19    0.82
  -7  -7  -2    5.70    1.30
   7   7  -2    5.78    0.74
  -7   7  -2    5.25    0.95
   7   7   2    5.55    0.83
   7  -7  -2    5.50    0.70
  -7   7  -2    4.73    1.38
  -7   7  -2    7.53    1.90
   7   7   2    6.23    1.21
  -7   7  -2    6.09    0.83
   7  -7  -2    6.09    0.94
  -7   7  -2    4.47    0.86
  -7   7  -2    6.99    1.11
  -7  -7  -3    5.86    0.98
  -7  -7  -3    4.17    0.86
   7  -7   3    4.97    1.22
   7   7  -3    5.43    0.84
  -7  -7  -3    6.09    1.39
  -7  -7  -3    7.96    1.54
  -7  -7  -3    5.65    1.12
  -7  -7  -3    4.51    1.39
  -7   7  -3    6.64    1.60
  -7   7  -3    5.06    1.00
  -7   7  -3    6.70    1.01
   7   7   3    6.11    1.12
  -7   7  -3    4.21    0.78
  -7   7  -3    4.08    0.92
  -7   7  -3    5.00    1.06
  -7   7  -3    6.00    1.62
  -7   7  -3    2.94    1.60
   7   7  -4   32.06    2.08
  -7  -7  -4   36.67    3.26
  -7  -7  -4   36.74    3.51
   7  -7   4   34.19    1.63
  -7  -7  -4   36.16    2.33
   7   7  -4   39.02    1.78
  -7  -7  -4   36.83    3.06
  -7  -7  -4   36.84    2.02
   7   7  -4   39.62    1.63
  -7  -7  -4   41.53    2.05
  -7   7  -4   40.06    2.52
   7  -7  -4   42.79    1.80
  -7   7  -4   39.72    3.60
  -7   7  -4   47.06    3.72
  -7   7  -4   40.20    2.11
  -7   7  -4   43.16    3.59
  -7   7  -4   39.47    1.90
  -7   7  -4   40.03    2.37
  -7  -7  -5   13.32    1.75
  -7  -7  -5   13.18    1.49
   7   7  -5   10.51    1.03
  -7  -7  -5   12.02    1.28
  -7   7  -5    8.91    2.68
  -7   7  -5   14.14    2.19
  -7   7  -5   12.84    1.51
  -7   7  -5   10.84    1.60
  -7   7  -5    9.33    1.48
  -7   7  -5   10.43    1.63
  -7  -7  -6    6.12    0.89
  -7  -7  -6    7.45    1.36
  -7   7  -6    5.79    0.91
  -7   7  -6    5.64    0.78
  -7   7  -6    5.19    0.97
   8  -7   0    4.76    1.19
  -8  -7   0    3.44    0.91
   8  -7   0    4.94    0.84
  -8   7   0    3.58    0.85
   8  -7   0    4.67    0.75
   8   7   0    4.24    0.72
   8   7   0    3.30    1.19
  -8   7   1   10.85    1.40
  -8   7   1    9.83    1.11
  -8  -7  -1   10.50    1.47
   8   7  -1    8.84    0.95
  -8  -7  -1    9.73    0.89
   8  -7   1   10.01    1.08
   8  -7   1    9.53    1.56
   8   7   1    7.39    0.93
   8  -7  -1    7.87    0.87
  -8   7  -1    8.35    0.83
  -8   7  -1   10.33    1.31
  -8   7  -1    9.33    1.09
   8   7   1    9.81    1.58
  -8   7  -1    9.52    1.32
  -8  -7   1   10.26    0.99
   8  -7   2    7.83    1.05
  -8  -7  -2    5.28    1.15
  -8  -7  -2    8.01    1.48
   8   7  -2    6.24    0.80
  -8  -7  -2    5.28    1.06
   8  -7   2    7.03    0.96
  -8   7  -2    6.45    1.32
   8  -7  -2    5.99    0.88
  -8   7  -2    5.07    1.12
   8   7   2    7.46    1.36
   8  -7  -2    6.22    0.81
  -8   7  -2    5.29    1.12
   8   7   2    7.47    1.01
  -8   7  -2    8.03    1.05
   8   7  -3   20.46    1.38
  -8  -7  -3   19.01    1.41
   8  -7   3   18.87    2.04
  -8  -7  -3   17.96    1.53
   8   7  -3   17.29    1.18
  -8  -7  -3   21.49    3.33
   8  -7  -3   18.90    1.19
   8   7   3   20.65    1.78
  -8   7  -3   20.38    2.89
  -8   7  -3   14.05    1.34
  -8   7  -3   20.34    3.54
  -8   7  -3   19.06    1.68
  -8   7  -3   19.19    1.62
   8  -7  -3   15.30    1.52
  -8  -7  -4    9.20    1.87
   8   7  -4    8.34    0.92
  -8  -7  -4    6.98    1.20
  -8  -7  -4    8.71    1.34
  -8  -7  -4    7.46    2.49
  -8  -7  -4    6.78    0.98
   8  -7   4    6.29    0.99
   8   7  -4    7.85    0.98
  -8   7  -4    4.84    0.98
  -8   7  -4    7.57    1.27
   8  -7  -4    6.57    0.92
  -8   7  -4    7.07    1.27
  -8   7  -4    9.52    2.84
  -8   7  -4   10.15    1.98
  -8   7  -4    7.57    1.00
  -8  -7  -5   -0.03    0.81
  -8  -7  -5    2.51    2.12
  -8  -7  -5    0.39    0.75
  -8  -7  -5    0.74    1.09
  -8   7  -5    2.77    1.99
  -8   7  -5    2.62    0.76
  -8   7  -5    0.50    0.70
  -8   7  -5    1.52    1.12
  -8   7  -5    0.71    0.73
  -8  -7  -6    0.19    0.67
  -8   7  -6    0.28    0.63
  -8   7  -6    1.90    0.70
   9   7   0   12.89    1.11
  -9   7   0   15.49    1.35
   9  -7   0   11.92    2.01
   9   7   0   12.52    2.07
  -9   7   0   14.65    1.58
   9  -7   0   12.83    1.11
   9  -7   0   12.57    1.22
  -9  -7   0   10.95    1.32
  -9   7   1   22.69    1.16
   9  -7   1   22.97    1.48
  -9   7   1   23.17    1.80
  -9  -7  -1   23.16    1.79
   9   7  -1   18.91    1.34
   9  -7   1   22.93    1.50
  -9   7  -1   21.18    1.71
   9  -7  -1   21.03    1.48
  -9   7  -1   23.08    1.70
   9  -7  -1   23.63    1.42
  -9  -7   1   23.86    1.24
   9   7   1   24.16    1.52
   9   7   1   30.29    4.20
  -9  -7  -2    2.95    1.12
   9   7  -2    2.64    0.82
   9  -7   2    2.39    0.91
   9  -7   2    2.49    1.25
   9   7  -2    3.31    0.74
  -9  -7  -2    2.46    1.19
   9   7   2    1.36    1.26
   9   7   2    2.61    0.96
  -9   7  -2    1.43    1.16
  -9   7  -2    2.16    0.98
   9  -7  -2    2.91    0.70
  -9   7  -2    2.87    1.02
   9   7   2    3.19    0.90
  -9   7  -2    4.56    0.84
   9  -7  -2    3.58    0.94
  -9  -7  -3    0.99    1.03
   9  -7   3    0.16    1.03
   9   7  -3    0.78    0.73
  -9  -7  -3   -0.64    0.87
   9   7  -3    1.63    0.67
  -9  -7  -3   -0.36    0.80
   9   7   3   -0.49    0.89
  -9   7  -3   -0.53    0.93
  -9   7  -3    0.54    0.80
   9  -7  -3    0.60    0.80
   9  -7  -3    0.60    0.73
  -9   7  -3    0.31    0.90
  -9   7  -3   -0.39    0.72
   9   7  -4    3.40    0.80
  -9  -7  -4    3.97    1.91
  -9  -7  -4    0.62    0.95
  -9  -7  -4    3.46    1.71
  -9   7  -4    1.00    0.82
  -9   7  -4    1.79    0.93
  -9   7  -4    2.39    2.38
  -9   7  -4    0.64    0.79
   9  -7  -4    1.33    0.81
  -9  -7  -5   -2.09    1.59
  -9  -7  -5   -0.27    0.77
  -9   7  -5    0.75    0.66
  -9   7  -5   -1.41    1.53
  -9   7  -5    0.46    0.73
  10   7   0    1.90    0.72
  10  -7   0    2.00    0.68
 -10   7   0    1.00    0.74
  10  -7   0    2.57    0.77
  10  -7   0    4.74    1.79
  10   7   0    2.72    1.60
 -10   7   0    1.39    0.89
  10  -7   1    5.54    1.07
  10   7  -1    5.82    0.96
  10  -7   1    4.79    1.66
 -10   7  -1    5.05    1.28
  10  -7  -1    7.11    1.09
 -10   7  -1    7.32    1.92
  10  -7  -1    4.48    0.85
  10   7   1    6.52    1.08
  10   7   1    6.65    1.77
  10  -7   2    3.16    1.33
 -10  -7  -2    1.98    1.03
  10   7  -2    4.15    0.97
 -10  -7  -2    5.30    0.89
  10  -7   2    3.16    1.28
  10  -7   2    3.39    0.82
  10   7  -2    3.97    0.81
  10  -7  -2    4.02    0.91
  10   7   2    2.79    0.86
 -10   7  -2    3.15    0.71
  10  -7  -2    4.25    1.03
  10   7   2    4.61    1.41
 -10   7  -2    3.53    1.09
  10   7   2    4.27    1.31
 -10   7  -2    3.23    1.02
  10  -7   3    7.70    1.56
  10   7  -3    9.04    1.02
 -10  -7  -3    9.04    1.71
 -10  -7  -3    6.77    1.09
  10  -7  -3    8.31    1.03
  10   7   3    7.51    1.42
 -10   7  -3    7.45    1.25
  10  -7  -3    9.15    1.25
 -10   7  -3    5.48    1.34
 -10   7  -3    9.46    1.14
  10   7  -4   -0.92    0.68
 -10  -7  -4   -1.28    1.21
 -10  -7  -4    0.60    1.22
 -10  -7  -4    2.41    1.01
 -10   7  -4    1.55    0.76
  10  -7  -4    0.27    0.79
 -10   7  -4    1.15    1.12
 -10   7  -4   -0.94    1.01
 -10  -7  -5    2.68    2.28
 -10  -7  -5    0.64    0.86
 -10   7  -5   -1.94    1.59
 -10   7  -5    0.24    0.54
  11  -7   0    4.17    2.76
  11  -7   0    0.77    0.74
 -11  -7   0   -1.09    0.69
  11   7   0   -3.08    2.49
  11  -7   0   -0.41    0.62
 -11   7   0   -0.06    0.92
  11   7   0   -0.25    0.63
 -11   7   0    1.06    0.74
  11  -7   1    4.49    1.07
  11  -7   1    3.61    1.63
  11   7  -1    4.20    1.15
  11  -7   1    4.84    0.95
 -11  -7  -1    2.85    0.93
  11   7  -1    3.11    0.87
  11  -7  -1    4.85    0.97
  11   7   1    4.78    1.08
 -11   7  -1    3.40    1.03
 -11   7  -1    5.79    1.14
  11   7   1    6.79    1.66
  11  -7  -1    4.62    0.93
  11   7   1    3.69    1.60
  11  -7   2    4.09    1.35
  11   7  -2    4.66    0.86
  11  -7   2    1.93    1.53
  11  -7   2    4.87    1.06
 -11  -7  -2    4.39    1.27
  11   7   2    3.32    1.26
 -11   7  -2    2.43    1.07
  11  -7  -2    3.68    0.83
  11  -7  -2    4.94    0.99
  11   7   2    6.01    1.04
 -11   7  -2    4.09    1.02
  11   7   2    1.03    1.25
 -11  -7  -3    9.39    1.55
  11   7  -3   11.14    1.09
  11  -7   3   11.11    2.50
 -11   7  -3   12.16    1.62
  11  -7  -3    8.73    1.02
  11   7   3    9.30    1.95
 -11   7  -3   10.20    1.36
  11  -7  -3   12.64    1.28
 -11  -7  -4    1.18    1.20
 -11   7  -4    1.24    1.08
 -11   7  -4    0.38    0.68
  12  -7   0    8.85    2.98
  12  -7   0    8.03    1.10
  12   7   0    8.14    2.61
 -12   7   0    8.62    1.40
  12   7   0   10.79    1.32
  12  -7   0   10.39    1.33
  12  -7   1    2.40    3.12
  12   7  -1    2.26    0.81
  12  -7   1    1.77    0.94
  12  -7  -1    3.74    0.88
  12   7   1    1.45    0.92
 -12   7  -1    1.53    0.90
  12  -7  -1    2.67    0.86
  12   7   1    0.60    1.10
  12   7   1    1.89    2.34
 -12  -7  -2    2.96    1.03
  12   7  -2    1.88    0.74
  12  -7   2    2.79    0.91
  12  -7   2    0.80    1.59
  12  -7  -2    3.94    0.87
  12   7   2    2.19    0.97
 -12   7  -2    2.04    0.86
  12   7   2    3.24    1.50
  12  -7  -2    3.67    0.79
 -12   7  -2    4.54    1.18
  12   7  -3    1.30    0.71
 -12  -7  -3    0.32    1.00
  12  -7  -3    1.87    0.86
 -12   7  -3   -0.31    0.74
 -12   7  -3   -0.86    0.89
  12  -7  -3   -0.78    1.00
 -12  -7  -4    0.80    0.97
 -12   7  -4    1.25    0.95
 -12   7  -4   -0.04    0.65
  13  -7   0    0.45    0.61
  13   7   0    0.02    0.79
  13   7   0   -0.31    0.66
  13  -7   0   -0.44    0.82
  13   7  -1    2.18    0.81
  13  -7   1    1.67    0.71
  13  -7   1    3.16    1.49
  13  -7  -1    1.72    0.71
  13   7   1    1.62    0.75
 -13   7  -1    2.13    1.26
  13  -7  -1    2.01    0.85
  13   7   1    0.13    1.48
  13   7  -2   -0.12    1.16
 -13   7  -2   -0.87    1.12
  13  -7  -2   -0.02    0.66
  13  -7  -2    0.32    1.15
 -13   7  -2   -0.65    0.81
 -13  -7  -3    1.19    0.78
 -13   7  -3    0.95    1.03
 -13   7  -3    0.88    0.81
  13  -7  -3    0.57    0.72
  14   7   0    5.54    1.04
  14  -7   0    6.52    0.88
  14   7  -1    0.94    0.58
  14  -7  -1    0.89    0.56
  14   7  -2   -0.08    0.53
  14  -7  -2    0.22    0.62
   0   8   0  454.90   12.00
   0  -8   0  450.46   12.07
   0  -8   0  476.38   12.18
   0   8   0  463.67   12.13
   0   8   0  450.15   12.26
   0   8   1   57.96    1.92
   0   8  -1   53.60    2.24
   0  -8  -1   58.67    2.02
   0   8   1   57.36    2.02
   0  -8  -1   57.13    1.90
   0   8  -1   55.26    2.12
   0   8  -1   55.78    1.82
   0   8   1   60.85    2.01
   0   8  -1   58.73    1.99
   0  -8   2    7.44    0.76
   0  -8  -2    8.44    0.74
   0   8  -2    7.38    0.76
   0  -8  -2    9.56    0.97
   0   8  -2    8.08    0.63
   0   8   2    7.38    0.41
   0  -8   2    7.85    0.60
   0  -8  -2    9.02    0.80
   0  -8  -2    7.39    0.83
   0   8  -2   10.28    1.11
   0   8   2    7.39    0.46
   0   8  -2    7.13    0.84
   0   8  -3  151.37    5.61
   0  -8  -3  140.48    4.54
   0   8  -3  141.56    4.80
   0  -8  -3  136.75    4.48
   0  -8  -3  141.28    4.26
   0   8  -3  134.61    4.24
   0   8  -4    2.21    0.87
   0  -8  -4    1.63    0.62
   0  -8  -4    1.12    0.62
   0   8  -4    0.62    0.96
   0  -8  -4    1.59    0.73
   0   8  -4    1.19    0.60
   0   8  -4    0.62    0.59
   0  -8  -5    4.02    0.93
   0   8  -5    3.63    1.02
   0   8  -5    5.54    0.88
   0   8  -5    3.86    0.85
   0   8  -5    4.97    1.26
   0  -8  -5    7.57    1.10
   0  -8  -5    3.78    1.01
   0  -8  -5    5.04    1.49
   0   8  -6    1.83    0.75
   0  -8  -6   -0.02    0.77
   0  -8  -7    4.59    0.84
   0   8  -7    2.14    0.81
   0   8  -7    5.62    0.75
   1  -8   0  162.29    4.64
   1   8   0  161.60    4.54
   1   8   0  159.99    4.73
  -1   8   0  163.04    4.67
  -1   8   0  165.86    4.66
   1  -8   0  155.19    4.47
  -1   8   0  158.42    4.56
   1   8   0  157.76    4.45
   1   8   0  160.70    4.66
  -1   8   1  203.73    5.55
  -1  -8  -1  201.12    5.70
   1   8  -1  205.97    5.67
  -1   8   1  211.34    5.91
  -1  -8  -1  204.29    5.65
  -1  -8  -1  198.48    5.63
  -1   8   1  200.74    5.65
   1   8  -1  197.24    5.84
   1   8  -1  198.45    5.50
   1   8  -1  201.04    5.75
   1   8   1  207.98    5.86
   1  -8  -1  216.75    5.81
  -1   8  -1  209.27    5.63
  -1   8  -1  205.41    5.90
   1  -8  -1  197.97    5.62
   1   8   1  200.47    5.71
   1   8   1  203.33    5.84
  -1   8  -1  205.52    5.92
   1   8  -2   14.35    1.35
   1   8  -2   11.76    0.87
  -1  -8  -2   12.16    0.87
  -1  -8  -2   10.67    0.85
   1   8  -2   11.61    0.98
  -1  -8  -2   11.80    0.91
   1   8  -2   11.62    0.71
  -1  -8  -2   11.03    0.94
   1  -8   2   12.57    0.90
   1  -8  -2   12.64    0.83
   1   8   2   11.03    0.94
  -1   8  -2   12.55    0.95
   1  -8  -2   11.57    0.76
  -1   8  -2   13.68    1.09
  -1   8  -2   12.97    1.10
   1   8   2   12.78    0.84
   1  -8  -2   12.33    0.92
   1   8  -3   58.94    3.01
  -1  -8  -3   58.31    3.33
   1   8  -3   64.13    2.30
  -1  -8  -3   62.45    2.54
   1   8  -3   58.21    2.23
   1   8  -3   65.92    2.97
  -1  -8  -3   62.60    2.39
  -1  -8  -3   65.99    2.36
  -1   8  -3   62.82    2.20
  -1   8  -3   66.06    2.77
  -1   8  -3   60.34    2.44
   1  -8  -3   62.25    2.31
  -1   8  -3   65.01    2.32
   1  -8  -3   61.43    2.37
  -1   8  -3   57.69    3.47
  -1  -8  -4   24.63    1.68
  -1  -8  -4   21.91    1.46
  -1  -8  -4   25.89    1.50
  -1  -8  -4   22.37    1.59
   1   8  -4   25.05    1.69
   1   8  -4   22.74    1.30
   1   8  -4   24.81    1.52
   1  -8  -4   24.41    1.40
   1  -8  -4   27.63    1.61
  -1   8  -4   27.51    1.75
   1  -8  -4   24.51    1.60
   1  -8  -4   24.94    1.43
  -1   8  -4   23.40    1.75
  -1   8  -4   26.70    1.89
   1   8  -5   10.40    1.61
   1   8  -5   12.35    1.63
  -1  -8  -5    9.44    1.25
   1   8  -5   11.97    1.06
   1   8  -5    9.65    1.27
  -1  -8  -5   13.81    1.64
  -1  -8  -5   13.02    1.49
  -1  -8  -5   12.73    1.36
  -1   8  -5   11.52    1.15
  -1   8  -5   14.76    1.86
  -1   8  -5   10.33    1.46
   1  -8  -5   10.32    1.18
   1  -8  -5    8.66    1.11
  -1   8  -5   11.72    1.18
   1  -8  -5   12.87    1.48
  -1   8  -5    8.59    1.69
   1   8  -6    7.24    0.95
  -1  -8  -6    8.43    1.21
   1  -8  -6    6.25    1.03
  -1   8  -6    6.93    0.98
   1  -8  -6    6.88    1.65
   1   8  -7    5.27    1.09
  -1  -8  -7    5.92    0.95
   1   8  -7    6.92    0.85
   1  -8  -7    5.74    0.90
  -1   8  -7    6.16    0.72
  -1   8  -7    4.25    0.77
   2   8   0   68.86    2.23
   2  -8   0   67.34    2.16
   2   8   0   66.63    2.13
  -2   8   0   64.83    2.33
  -2  -8   0   67.96    2.20
  -2   8   0   67.82    2.25
   2   8   0   70.38    2.46
  -2  -8  -1   35.19    1.43
  -2   8   1   33.08    1.39
  -2   8   1   35.77    1.19
   2   8  -1   36.43    1.29
   2   8  -1   34.19    1.47
   2   8  -1   33.50    1.36
  -2  -8  -1   35.65    1.43
   2   8  -1   34.30    1.62
  -2  -8  -1   33.89    1.44
   2  -8   1   34.02    1.34
   2  -8  -1   32.79    1.44
  -2   8  -1   31.56    1.40
   2   8   1   33.28    1.30
  -2   8  -1   33.59    1.51
   2   8   1   34.74    1.39
   2  -8  -1   34.73    1.29
  -2   8  -1   35.63    1.50
   2   8   1   35.09    1.59
   2   8  -2   51.55    2.30
   2   8  -2   52.06    2.05
   2   8  -2   55.03    1.78
  -2  -8  -2   53.25    2.08
  -2  -8  -2   53.96    2.05
  -2  -8  -2   52.44    2.06
   2   8  -2   50.72    1.89
  -2  -8  -2   52.60    2.14
  -2   8   2   53.82    2.20
   2  -8   2   56.40    2.12
   2   8   2   54.75    2.08
   2  -8  -2   52.49    1.80
  -2   8  -2   51.57    1.93
  -2  -8   2   50.24    2.41
   2   8   2   54.73    2.03
  -2   8  -2   51.10    1.86
   2  -8  -2   58.87    2.83
  -2   8  -2   52.69    2.09
  -2   8  -2   53.06    2.18
  -2   8  -2   54.82    2.26
   2   8   2   53.07    1.94
  -2  -8  -3   10.33    0.94
  -2  -8  -3    9.87    1.01
   2   8  -3   10.92    1.02
  -2  -8  -3    8.35    1.03
  -2  -8  -3   10.96    1.03
   2  -8   3    9.29    0.87
   2   8  -3   10.86    0.90
  -2  -8  -3   10.44    1.17
   2  -8   3   10.22    0.58
  -2  -8   3   10.26    0.68
  -2   8  -3   11.09    1.09
  -2   8  -3    9.31    1.20
  -2   8  -3   10.48    0.90
   2  -8  -3    9.41    0.78
  -2   8  -3   10.40    1.28
   2  -8  -3    9.24    0.78
  -2   8  -3   10.29    0.82
  -2   8  -3    9.78    1.11
   2   8  -4   -0.43    0.61
   2   8  -4    0.18    0.63
  -2  -8  -4    0.71    0.71
  -2  -8  -4    0.25    0.63
  -2  -8  -4    0.21    0.93
  -2  -8  -4    0.07    0.56
   2   8  -4    0.52    0.68
   2   8  -4    0.33    0.52
  -2  -8  -4    0.86    0.71
   2  -8  -4    0.69    0.53
  -2   8  -4    0.79    0.87
   2  -8  -4   -0.39    0.81
   2  -8  -4    0.00    0.42
  -2   8  -4    1.36    0.77
  -2   8  -4    1.45    0.84
  -2   8  -4    0.15    1.18
  -2   8  -4    0.20    0.50
   2  -8  -4    0.67    0.59
  -2   8  -4    0.51    0.55
  -2  -8  -5    0.78    0.78
  -2  -8  -5    0.29    0.94
  -2  -8  -5    0.04    0.78
   2   8  -5    1.32    1.02
   2   8  -5    2.23    0.72
   2   8  -5    0.46    0.78
   2   8  -5    0.96    0.58
  -2  -8  -5    0.37    0.75
  -2   8  -5    1.32    1.18
   2  -8  -5    0.76    0.94
  -2   8  -5   -0.14    0.78
  -2   8  -5    1.14    1.09
   2  -8  -5    0.35    0.63
  -2   8  -5    1.23    0.65
  -2   8  -5    0.95    0.66
   2  -8  -5    0.37    0.66
  -2  -8  -6   17.02    1.69
  -2  -8  -6   16.66    1.47
   2   8  -6   18.11    1.32
   2   8  -6   15.09    1.21
  -2   8  -6   17.28    1.36
   2  -8  -6   15.09    1.39
   2  -8  -6   20.35    1.73
  -2   8  -6   23.46    1.81
  -2   8  -6   17.03    1.68
  -2  -8  -7    4.92    0.81
   2   8  -7    4.09    0.85
   2  -8  -7    4.65    0.98
  -2   8  -7    4.19    0.68
  -3   8   0   32.03    1.40
  -3  -8   0   30.84    1.28
   3   8   0   32.64    1.38
  -3   8   0   30.47    1.48
   3   8   0   30.54    1.54
  -3   8   0   33.13    1.33
   3  -8   1   22.42    1.07
   3   8  -1   23.20    1.11
  -3  -8  -1   23.06    1.19
  -3  -8  -1   23.18    1.17
  -3  -8  -1   21.77    1.23
   3   8  -1   21.84    1.43
  -3  -8  -1   21.69    1.15
   3   8  -1   20.79    0.99
   3   8   1   22.93    1.36
   3   8   1   24.24    1.09
   3  -8  -1   22.20    1.02
  -3   8  -1   24.26    1.27
   3   8   1   20.93    1.17
  -3   8  -1   22.81    1.04
  -3  -8   1   23.23    1.44
   3  -8  -1   24.95    1.32
  -3   8  -1   23.29    1.26
  -3   8   2  192.35    5.48
   3   8  -2  191.04    5.66
  -3  -8  -2  199.12    5.80
   3   8  -2  198.94    5.39
  -3  -8  -2  195.28    5.74
  -3  -8  -2  192.30    5.75
  -3   8   2  188.53    5.82
  -3  -8  -2  197.37    5.74
  -3  -8  -2  205.77    5.98
   3   8  -2  195.17    5.53
  -3  -8   2  188.68    5.52
  -3   8  -2  188.61    5.90
  -3   8  -2  202.62    5.60
   3  -8  -2  202.65    5.47
   3   8   2  207.87    6.90
   3   8   2  193.96    5.71
  -3   8  -2  198.94    6.13
  -3   8  -2  199.35    5.66
  -3   8  -2  199.76    5.95
  -3   8  -2  194.41    5.88
  -3  -8  -3   65.41    2.56
   3   8  -3   67.58    2.19
  -3  -8  -3   62.90    2.75
   3  -8   3   67.76    2.42
   3   8  -3   59.54    2.36
   3   8  -3   68.60    2.37
  -3  -8  -3   63.66    3.25
   3   8  -3   67.46    2.53
  -3  -8  -3   68.51    2.65
  -3  -8  -3   66.88    2.61
  -3   8  -3   63.34    2.66
  -3   8  -3   67.89    2.81
  -3   8  -3   69.30    3.02
  -3   8  -3   68.12    2.41
  -3   8  -3   64.86    2.45
   3   8   3   67.80    2.28
  -3   8  -3   65.94    2.87
  -3  -8  -4    8.97    1.11
  -3  -8  -4   11.20    1.55
   3   8  -4    8.48    1.13
   3   8  -4   10.54    1.09
   3   8  -4    9.38    1.01
   3   8  -4    8.92    1.39
  -3  -8  -4   10.25    1.48
  -3  -8  -4    8.66    1.17
  -3   8  -4    9.36    1.40
  -3   8  -4    8.13    1.54
  -3   8  -4    8.56    1.02
  -3   8  -4    7.89    0.95
  -3   8  -4   10.19    1.28
  -3   8  -4    8.25    1.38
   3   8  -5    3.73    1.20
   3   8  -5    5.16    0.81
  -3  -8  -5    0.84    1.01
  -3  -8  -5    3.26    0.90
   3   8  -5    2.87    0.87
  -3  -8  -5    4.20    1.05
  -3   8  -5    4.13    1.27
   3  -8  -5    4.74    0.89
   3  -8  -5    4.42    1.95
  -3   8  -5    4.26    0.86
  -3   8  -5    2.79    1.05
  -3   8  -5    2.89    1.83
  -3   8  -5    3.06    1.30
  -3   8  -5    3.51    0.82
   3   8  -6    5.07    0.87
   3   8  -6    8.76    1.39
  -3  -8  -6    5.82    1.51
   3   8  -6    5.68    1.18
  -3  -8  -6    5.80    1.05
  -3   8  -6    4.61    1.14
  -3   8  -6    7.52    1.04
   3  -8  -6    6.06    1.39
   3  -8  -6    6.11    1.04
  -3   8  -6    3.86    1.04
  -3  -8  -7    1.71    0.63
  -3  -8  -7    4.01    0.95
  -3   8  -7    3.19    0.74
  -3   8  -7    3.17    0.61
  -4   8   0    0.73    0.39
  -4   8   0    0.84    0.60
  -4   8   0    0.79    0.61
  -4  -8   0    1.00    0.42
   4   8   0    0.81    0.48
  -4   8   0    0.74    0.59
   4   8   0    0.17    0.61
  -4  -8   0    0.80    0.63
  -4  -8  -1   34.48    1.54
  -4   8   1   34.33    1.57
   4   8  -1   32.82    1.86
  -4   8   1   32.50    1.72
   4   8  -1   35.11    1.47
  -4  -8  -1   34.02    1.53
   4  -8   1   33.81    1.48
   4   8  -1   34.84    1.35
  -4  -8  -1   33.50    1.49
  -4   8  -1   28.86    1.50
  -4   8  -1   36.65    2.05
   4   8   1   34.41    1.60
  -4   8  -1   33.12    1.63
   4  -8  -1   36.42    1.37
   4   8   1   31.71    1.76
  -4   8  -1   34.16    1.35
  -4   8  -1   34.62    1.65
  -4   8  -1   33.03    1.58
  -4   8  -1   38.42    1.82
  -4  -8   1   33.71    1.54
  -4   8   2   89.62    3.21
  -4  -8  -2   89.83    3.30
  -4   8   2   90.93    3.09
  -4  -8  -2   87.91    3.54
   4   8  -2   91.05    2.90
   4   8  -2   90.32    2.76
  -4  -8  -2   93.36    3.10
   4  -8   2   91.97    3.34
   4  -8   2   87.60    2.90
  -4  -8  -2   83.75    3.07
  -4  -8  -2   93.50    3.19
   4  -8   2   90.77    2.92
  -4   8  -2   84.80    3.54
  -4   8  -2   93.45    2.95
  -4   8  -2   92.04    3.26
  -4   8  -2   90.81    3.50
  -4  -8   2   89.69    2.79
   4   8   2   84.85    3.10
  -4   8  -2   86.57    3.42
  -4   8  -2   92.36    2.99
   4   8   2   89.21    3.30
  -4   8  -2   94.93    3.34
   4  -8  -2  102.78    3.33
  -4  -8  -3    9.47    1.94
   4   8  -3   10.49    0.75
   4  -8   3    8.16    1.02
  -4  -8  -3    7.67    1.04
  -4  -8  -3    6.10    1.12
  -4  -8  -3    8.88    1.07
  -4  -8  -3    7.82    0.98
   4   8  -3    8.97    0.84
   4   8  -3    8.69    1.04
  -4  -8  -3    9.32    1.19
  -4   8  -3    9.75    1.22
  -4   8  -3    9.95    0.97
  -4   8  -3    9.61    1.01
   4  -8  -3    9.38    0.78
  -4   8  -3   10.08    1.24
  -4   8  -3    9.97    1.86
  -4   8  -3   10.43    1.45
  -4  -8  -4   19.21    1.47
   4   8  -4   18.07    1.49
   4   8  -4   21.22    1.49
  -4  -8  -4   16.14    2.64
  -4  -8  -4   18.74    1.83
  -4  -8  -4   18.75    1.47
  -4   8  -4   21.31    1.37
  -4   8  -4   21.94    1.68
  -4   8  -4   21.97    2.10
   4  -8  -4   19.55    1.19
  -4   8  -4   19.95    1.35
  -4   8  -4   25.49    2.27
  -4  -8  -5    5.06    1.02
  -4  -8  -5    3.20    1.24
   4   8  -5    4.11    0.94
  -4  -8  -5    4.75    1.57
  -4  -8  -5    6.43    1.54
   4   8  -5    4.66    0.99
  -4  -8  -5    4.39    1.36
   4   8  -5    5.61    1.28
  -4   8  -5    4.97    1.57
  -4   8  -5    5.43    1.12
  -4   8  -5    5.63    1.62
  -4   8  -5    4.59    1.12
  -4   8  -5    4.47    1.81
   4  -8  -5    2.60    1.32
  -4   8  -5    7.02    1.03
  -4  -8  -6    0.80    0.71
   4   8  -6   -0.50    0.80
  -4  -8  -6    1.37    0.85
   4   8  -6    0.72    0.66
  -4   8  -6   -0.12    0.55
  -4   8  -6    0.83    0.83
   4  -8  -6   -0.16    0.86
  -4   8  -6    0.70    0.85
  -4  -8  -7    0.89    0.58
  -4  -8  -7    0.70    0.69
  -4   8  -7    0.01    0.50
  -4   8  -7    0.15    0.46
   5   8   0   30.93    1.39
  -5   8   0   32.13    1.66
   5   8   0   32.77    1.84
  -5  -8   0   34.94    1.36
   5  -8   0   31.35    1.45
  -5   8   0   29.36    1.60
  -5  -8   0   30.75    1.70
   5  -8   0   33.90    1.41
  -5   8   0   33.98    1.69
  -5  -8  -1   31.63    1.46
  -5  -8  -1   31.13    1.54
  -5   8   1   33.62    1.69
   5   8  -1   35.26    2.09
  -5  -8  -1   33.47    1.68
  -5   8   1   32.38    1.77
   5   8  -1   34.26    1.39
  -5  -8  -1   32.53    1.73
   5  -8   1   33.65    1.48
  -5  -8  -1   31.81    1.82
   5   8  -1   32.43    1.50
  -5   8   1   35.35    1.59
   5  -8   1   34.48    1.53
  -5   8  -1   32.45    1.60
  -5   8  -1   32.21    1.65
  -5  -8   1   32.81    1.59
   5   8   1   34.61    1.66
  -5   8  -1   33.84    1.88
  -5   8  -1   34.76    1.76
   5   8   1   32.07    1.83
   5  -8  -1   35.81    1.41
   5  -8  -1   30.26    1.45
   5   8   1   34.62    1.49
  -5   8  -1   34.83    1.92
  -5   8  -1   34.12    1.72
  -5   8  -1   33.76    1.47
  -5  -8  -2   21.15    1.37
  -5  -8  -2   21.48    1.29
  -5  -8  -2   22.80    1.41
   5   8  -2   19.49    1.03
   5  -8   2   21.34    1.23
   5  -8   2   21.82    1.20
   5   8  -2   21.21    1.15
   5  -8   2   20.83    1.55
  -5  -8  -2   20.55    1.74
  -5  -8  -2   19.77    1.25
  -5  -8  -2   20.49    1.46
  -5   8   2   17.81    1.41
  -5   8  -2   21.12    1.47
  -5   8  -2   22.08    1.36
  -5   8  -2   21.20    1.41
   5  -8  -2   22.14    1.14
  -5   8  -2   17.68    1.67
  -5   8  -2   22.67    1.21
  -5  -8   2   20.45    0.97
   5   8   2   18.86    1.40
  -5   8  -2   21.84    1.66
  -5   8  -2   23.27    1.53
   5   8   2   21.46    1.54
   5  -8  -2   19.73    1.32
  -5  -8  -3    1.44    0.59
   5   8  -3    2.02    0.53
  -5  -8  -3    1.67    0.83
   5  -8   3    3.20    0.91
   5   8  -3    2.63    0.50
   5   8  -3    1.29    1.44
  -5  -8  -3    3.71    1.51
   5   8  -3    1.91    0.63
  -5  -8  -3    1.98    0.73
  -5  -8  -3    2.33    0.70
  -5  -8  -3    2.16    0.76
  -5   8  -3    1.88    1.02
  -5   8  -3    2.95    1.53
  -5   8  -3    1.57    0.54
  -5   8  -3    1.29    0.89
   5   8   3    2.01    0.71
  -5   8  -3    3.01    0.67
  -5   8  -3    2.87    0.88
  -5   8  -3    3.14    0.89
   5  -8  -3    1.74    0.49
  -5  -8  -4    2.12    0.97
  -5  -8  -4    2.31    0.79
   5   8  -4    2.01    0.86
  -5  -8  -4    1.35    1.15
   5   8  -4    2.12    0.58
   5   8  -4    1.83    0.75
  -5  -8  -4    3.73    1.14
  -5  -8  -4    2.47    0.79
  -5   8  -4    2.32    1.10
  -5   8  -4    1.83    1.10
  -5   8  -4    1.47    0.67
  -5   8  -4    0.70    1.31
   5  -8  -4    2.18    0.62
  -5   8  -4    1.39    0.66
  -5   8  -4    4.93    2.36
  -5   8  -4    3.45    1.04
  -5  -8  -5    9.95    1.26
   5   8  -5   10.11    2.24
  -5  -8  -5   11.60    1.36
  -5  -8  -5   14.73    2.10
  -5  -8  -5   10.96    1.89
   5   8  -5   12.44    1.04
  -5  -8  -5   12.56    1.83
   5   8  -5   11.78    1.27
  -5   8  -5   11.43    1.25
   5  -8  -5   11.83    1.21
  -5   8  -5   16.59    2.55
  -5   8  -5    9.58    1.10
  -5   8  -5   13.11    2.09
  -5   8  -5   12.60    2.13
  -5   8  -5   13.58    1.55
  -5  -8  -6   20.27    1.48
  -5  -8  -6   17.89    1.48
  -5   8  -6   17.23    1.52
  -5   8  -6   19.44    1.28
   5  -8  -6   14.55    1.44
  -5   8  -6   17.81    1.44
   6   8   0   33.07    1.48
  -6   8   0   31.20    1.77
   6   8   0   31.96    1.93
   6  -8   0   32.32    1.52
  -6   8   0   32.86    1.70
  -6  -8   0   30.91    1.75
   6  -8   0   31.40    1.44
  -6   8   1   13.70    1.27
  -6  -8  -1   15.14    1.38
   6   8  -1   13.18    0.92
   6  -8   1   15.69    1.46
  -6  -8  -1   14.78    1.06
  -6   8   1   12.95    1.21
   6   8  -1   17.84    1.89
   6  -8   1   14.26    1.07
  -6   8   1   13.76    1.09
  -6   8  -1   14.86    1.10
  -6   8  -1   16.61    1.62
  -6   8  -1   15.59    1.61
  -6  -8   1   15.00    1.90
  -6   8  -1   12.76    1.21
  -6   8  -1   18.28    1.61
  -6   8  -1   13.61    1.12
   6   8   1   16.27    1.63
   6  -8  -1   14.17    0.94
   6   8   1   14.98    1.02
   6  -8  -1   14.18    1.06
  -6  -8  -2    6.39    1.04
   6   8  -2    6.82    0.72
   6  -8   2    8.33    0.91
   6  -8   2    9.48    1.33
   6   8  -2    7.96    0.86
  -6  -8  -2    9.23    1.01
  -6  -8  -2    8.55    1.05
   6  -8   2    8.77    0.98
  -6  -8  -2    8.23    0.94
  -6  -8  -2    9.49    1.51
  -6  -8  -2    9.48    1.20
  -6   8  -2    7.91    1.25
  -6   8  -2    9.03    1.32
  -6   8  -2    9.69    1.24
   6  -8  -2    9.17    0.97
  -6   8  -2    8.32    1.03
  -6   8  -2    8.87    0.90
  -6   8  -2    9.07    1.11
   6   8   2    8.58    1.25
   6  -8  -2    9.34    0.77
   6   8   2    9.80    1.29
  -6   8  -2   10.18    1.56
   6   8   2    8.01    0.88
   6   8  -3    0.98    0.50
   6   8  -3    0.80    0.53
   6  -8   3    0.50    0.82
  -6  -8  -3    0.82    0.68
  -6  -8  -3    1.11    0.96
  -6  -8  -3    0.80    0.60
   6   8  -3    1.22    0.62
  -6  -8  -3    0.41    0.59
  -6  -8  -3    1.48    0.93
  -6   8  -3    0.76    0.57
   6   8   3    0.03    0.67
  -6   8  -3    1.29    1.08
  -6   8  -3    0.44    0.58
  -6   8  -3    0.97    1.08
  -6   8  -3    0.89    0.75
  -6   8  -3    0.32    0.72
  -6   8  -3    2.56    1.52
  -6  -8  -4   26.31    2.81
  -6  -8  -4   30.27    1.86
  -6  -8  -4   30.18    1.91
  -6  -8  -4   29.41    2.47
   6   8  -4   30.35    1.85
   6   8  -4   30.14    1.43
  -6  -8  -4   27.52    2.34
   6   8  -4   29.61    1.58
  -6  -8  -4   28.06    2.09
  -6   8  -4   28.57    1.97
  -6   8  -4   29.97    2.20
  -6   8  -4   31.91    1.77
  -6   8  -4   27.98    1.67
  -6   8  -4   27.85    2.67
  -6   8  -4   29.48    2.76
  -6   8  -4   32.15    3.46
   6  -8  -4   29.89    1.46
  -6  -8  -5   11.10    1.33
  -6  -8  -5   10.90    1.69
   6   8  -5   12.32    1.11
  -6  -8  -5   13.35    1.34
  -6   8  -5   12.46    1.46
  -6   8  -5   13.28    1.38
   6  -8  -5   12.54    1.33
  -6   8  -5   13.02    1.80
  -6   8  -5   13.44    1.68
  -6  -8  -6    1.67    0.91
  -6  -8  -6   -0.27    0.77
  -6  -8  -6    0.59    0.69
  -6   8  -6    0.58    0.81
  -6   8  -6    0.63    0.63
  -6   8  -6   -1.18    0.93
  -6   8  -6    0.32    0.53
   7  -8   0   10.93    0.93
   7   8   0   15.34    1.78
   7   8   0   11.65    0.91
  -7   8   0   11.74    1.15
  -7  -8   0   11.20    1.08
  -7   8   0   13.97    1.23
  -7   8   1   28.83    1.83
  -7  -8  -1   27.87    1.87
   7  -8   1   27.02    1.49
  -7  -8  -1   26.81    1.43
   7   8  -1   27.21    2.48
  -7   8   1   26.98    1.80
   7   8  -1   27.92    1.41
  -7   8   1   28.05    1.49
   7  -8   1   25.96    1.57
   7  -8   1   26.78    1.96
   7   8   1   26.27    1.40
  -7   8  -1   26.93    1.73
  -7   8  -1   25.71    1.38
   7  -8  -1   27.80    1.37
  -7   8  -1   25.74    1.69
   7  -8  -1   26.16    1.47
  -7   8  -1   26.12    1.50
  -7  -8   1   26.11    1.44
   7   8   1   26.30    1.88
  -7  -8  -2    2.92    0.78
   7  -8   2    3.43    0.81
  -7  -8  -2    1.04    0.99
  -7  -8  -2    3.41    1.31
   7  -8   2    3.02    1.40
   7  -8   2    2.90    0.69
  -7  -8  -2    3.17    1.09
   7   8  -2    2.32    0.65
   7   8  -2    3.08    0.91
   7   8   2    2.50    0.74
  -7   8  -2    1.84    0.80
  -7   8  -2    2.90    0.78
  -7   8  -2    3.08    1.36
  -7   8  -2    3.71    1.12
   7   8   2    3.32    1.02
  -7   8  -2    2.55    0.77
   7  -8   3    1.26    0.97
   7   8  -3    1.59    0.62
   7   8  -3    1.88    0.59
  -7  -8  -3    1.57    0.83
   7   8  -3    2.74    0.80
  -7  -8  -3    2.18    1.31
  -7  -8  -3    0.84    0.70
  -7  -8  -3    1.35    0.96
  -7  -8  -3    0.17    0.98
  -7  -8  -3   -1.14    1.35
  -7   8  -3    1.30    0.87
  -7   8  -3    1.36    0.59
  -7   8  -3    2.39    0.87
   7  -8  -3    1.16    0.51
   7   8   3    2.14    0.90
  -7   8  -3    1.48    1.51
  -7   8  -3    1.24    0.80
  -7   8  -3   -1.54    1.06
   7  -8  -3    0.78    0.87
  -7   8  -3    3.54    1.80
   7   8  -4    0.09    0.66
  -7  -8  -4    0.42    0.68
  -7  -8  -4    1.51    2.03
  -7  -8  -4   -0.87    0.95
  -7  -8  -4   -0.28    1.64
   7   8  -4   -1.97    0.99
  -7  -8  -4   -0.13    1.13
  -7  -8  -4   -1.35    1.55
  -7   8  -4    0.50    0.62
  -7   8  -4    0.76    1.82
  -7   8  -4    0.29    0.84
  -7   8  -4    0.91    1.05
  -7   8  -4   -0.75    1.39
  -7   8  -4   -0.08    0.75
   7   8  -5    2.19    0.76
  -7  -8  -5    1.72    1.41
  -7  -8  -5   -0.44    0.93
  -7  -8  -5    0.12    1.18
  -7  -8  -5    0.28    0.71
  -7   8  -5    1.17    0.64
  -7   8  -5    1.35    1.00
  -7   8  -5    1.16    0.95
  -7   8  -5    0.80    1.04
  -7   8  -5   -1.15    2.29
  -7   8  -5    0.29    1.16
   7  -8  -5   -0.48    0.90
  -7  -8  -6    3.16    0.76
  -7  -8  -6    4.73    0.97
  -7   8  -6    4.98    0.84
  -7   8  -6    3.68    0.85
  -7   8  -6    3.01    0.75
   8  -8   0   35.50    2.48
   8  -8   0   40.53    1.89
   8  -8   0   37.11    1.79
  -8   8   0   38.25    2.01
  -8  -8   0   37.77    2.05
  -8   8   0   38.54    2.10
   8   8   0   42.76    2.64
  -8   8   0   35.35    2.13
   8   8   0   36.82    1.80
  -8  -8  -1    1.08    0.81
  -8   8   1    2.66    0.83
   8  -8   1    4.14    1.23
   8  -8   1    2.63    0.70
  -8   8   1    2.42    0.66
   8  -8   1    2.75    0.72
   8   8  -1    1.57    0.78
   8  -8  -1    2.05    0.66
  -8   8  -1    2.24    0.57
   8   8   1    1.68    0.63
  -8   8  -1    2.59    0.81
   8   8   1    1.22    1.02
   8  -8  -1    3.28    0.75
  -8   8  -1    3.21    0.94
  -8  -8   1    2.33    0.69
  -8   8  -1    1.91    0.83
   8  -8   2   20.45    1.37
  -8  -8  -2   23.19    1.88
   8   8  -2   20.38    1.45
  -8  -8  -2   19.70    1.44
   8  -8   2   21.63    1.97
  -8  -8  -2   21.27    1.96
   8   8  -2   22.11    1.32
   8  -8  -2   19.63    1.44
   8   8   2   19.91    1.91
   8   8   2   21.01    1.55
  -8   8  -2   21.16    1.84
  -8   8  -2   22.48    1.74
  -8   8  -2   21.42    1.52
  -8   8  -2   20.91    1.51
   8  -8  -2   23.50    1.34
   8   8  -3   31.28    1.72
  -8  -8  -3   35.35    2.16
   8   8  -3   34.07    1.61
  -8  -8  -3   34.22    2.04
  -8  -8  -3   32.61    2.61
  -8  -8  -3   24.08    2.65
   8   8  -3   31.76    1.97
   8  -8   3   33.01    2.37
  -8  -8  -3   30.62    2.53
  -8   8  -3   35.64    2.26
  -8   8  -3   24.02    3.41
   8  -8  -3   32.28    1.61
  -8   8  -3   32.91    2.53
  -8   8  -3   32.70    2.05
  -8   8  -3   31.27    1.87
   8   8   3   30.54    2.12
  -8  -8  -4   27.77    2.01
  -8  -8  -4   28.41    2.72
   8   8  -4   24.34    1.37
   8  -8   4   20.13    1.55
  -8  -8  -4   25.18    1.92
  -8  -8  -4   23.53    1.58
  -8   8  -4   26.38    1.96
  -8   8  -4   27.46    2.00
   8  -8  -4   25.22    1.44
  -8   8  -4   24.68    2.43
  -8   8  -4   23.96    1.72
  -8   8  -4   24.94    1.53
  -8  -8  -5    0.05    0.86
  -8  -8  -5    1.42    2.56
  -8  -8  -5    0.26    0.78
  -8   8  -5    0.90    1.08
  -8   8  -5    0.80    0.71
  -8   8  -5    0.50    0.71
  -8  -8  -6    1.06    0.88
  -8   8  -6    4.56    1.10
  -9  -8   0    1.13    0.79
   9   8   0    0.10    0.54
   9  -8   0    0.70    0.61
  -9   8   0    1.36    0.92
   9   8   0    1.24    1.35
  -9   8   0    0.92    0.80
   9  -8   0    0.13    0.52
   9  -8   1    1.73    0.68
   9  -8   1    2.78    1.36
   9   8  -1    1.52    0.58
  -9   8   1    1.92    0.61
  -9  -8  -1    0.94    0.87
  -9   8   1    1.79    0.96
   9  -8   1    1.92    0.76
   9   8   1    1.23    1.00
  -9  -8   1    1.47    0.62
   9  -8  -1    2.39    0.76
  -9   8  -1    2.34    0.97
  -9   8  -1    2.20    0.82
   9  -8  -1    2.38    0.69
   9   8   1    1.54    1.22
   9   8   1    1.89    0.72
  -9  -8  -2   23.01    2.08
  -9  -8  -2   24.92    1.53
   9  -8   2   25.18    1.76
   9   8  -2   24.96    1.46
   9  -8   2   26.25    2.33
   9  -8   2   24.62    1.57
   9   8  -2   22.73    1.66
  -9   8  -2   24.92    1.90
   9  -8  -2   24.69    2.06
  -9   8  -2   24.10    1.52
  -9   8  -2   23.76    1.98
   9  -8  -2   25.23    1.50
   9   8   2   23.77    2.14
   9   8   2   24.25    1.69
   9   8   2   27.65    1.67
  -9   8  -2   23.05    1.73
   9   8  -3   15.29    1.19
  -9  -8  -3   11.99    1.35
   9  -8   3   18.25    2.10
   9   8  -3   14.34    2.60
   9   8  -3   12.82    1.26
  -9  -8  -3   14.62    2.00
  -9  -8  -3   15.60    1.60
  -9   8  -3   16.07    2.05
  -9   8  -3   10.96    1.48
   9  -8  -3   14.86    1.20
  -9   8  -3   12.99    1.46
   9  -8  -3   16.08    1.48
   9   8   3   10.84    1.47
  -9   8  -3   11.84    1.34
  -9  -8  -4    6.80    1.80
   9   8  -4    4.63    1.12
  -9  -8  -4    5.36    1.11
  -9  -8  -4    5.13    1.14
  -9   8  -4    5.20    1.16
  -9   8  -4    7.68    1.74
  -9   8  -4    5.59    1.03
  -9  -8  -5    8.59    2.00
  -9  -8  -5    7.47    1.03
  -9   8  -5   11.59    1.32
  -9   8  -5   13.08    2.11
  -9   8  -5    9.85    1.05
  10   8   0   -0.26    0.59
 -10   8   0    1.30    1.10
 -10   8   0   -0.76    1.08
  10  -8   0    0.60    1.64
  10  -8   0    0.22    0.67
  10   8   0   -0.88    0.94
  10   8   0   -1.49    1.59
  10  -8   1    3.62    1.49
  10   8  -1    2.49    0.98
  10  -8   1    4.16    0.96
  10  -8   1    2.41    0.77
 -10  -8  -1    1.74    0.93
  10   8  -1    3.07    0.81
  10   8   1    2.13    1.38
  10   8   1   -0.19    1.23
  10   8   1    3.47    0.92
  10  -8  -1    3.04    0.84
  10  -8  -1    2.49    0.82
 -10   8  -1    1.68    0.95
 -10   8  -1    0.87    0.85
  10  -8   2    6.92    1.11
 -10  -8  -2    7.47    1.49
  10   8  -2    6.41    1.15
  10  -8   2    9.83    1.99
  10  -8   2    5.14    1.27
 -10  -8  -2    5.56    0.77
  10   8  -2    3.30    0.79
  10  -8  -2    5.66    0.99
  10   8   2    5.69    1.43
  10   8   2    4.73    1.11
 -10   8  -2    6.60    1.45
  10   8   2    7.80    1.17
 -10   8  -2    6.63    1.23
  10  -8  -2    6.37    0.99
 -10  -8  -3    2.61    0.92
 -10  -8  -3    3.31    1.28
  10   8  -3    3.74    0.79
 -10  -8  -3    1.38    1.58
  10  -8   3    1.59    1.24
  10  -8  -3    2.80    1.37
 -10   8  -3    1.75    1.09
 -10   8  -3    4.07    0.94
 -10   8  -3    3.66    1.06
  10  -8  -3    3.32    0.85
  10   8   3    3.97    1.20
 -10  -8  -4    3.99    1.54
 -10   8  -4    0.47    1.14
  10  -8  -4    5.09    1.18
 -10   8  -4    1.38    0.77
  10  -8  -4    0.24    0.81
 -10  -8  -5    0.34    1.39
 -10   8  -5   -0.37    1.41
 -10   8  -5    0.82    0.63
 -11  -8   0    0.59    0.79
 -11   8   0    0.81    0.73
  11  -8   0   -0.59    0.66
  11   8   0    1.09    1.25
 -11   8   0   -0.21    0.79
  11  -8   0    0.21    2.12
  11  -8   0    1.35    0.69
  11   8   0    1.13    0.72
  11   8   0    2.27    2.24
  11  -8   1   13.00    2.28
  11   8  -1   13.81    1.73
  11  -8   1   14.32    1.36
 -11  -8  -1   13.80    1.57
  11   8  -1   14.90    1.29
  11  -8   1   14.78    1.49
 -11   8  -1    9.33    1.30
  11   8   1    7.72    1.98
 -11   8  -1   12.64    1.55
  11  -8  -1   14.39    1.33
  11  -8  -1   13.90    1.37
  11   8   1   11.38    1.35
  11  -8   2    6.16    1.83
 -11  -8  -2    5.21    1.25
  11   8  -2    7.29    1.01
  11   8   2    7.49    1.68
 -11   8  -2    6.88    1.37
 -11   8  -2    4.15    0.98
  11  -8  -2    6.11    0.99
  11   8   2    5.87    1.54
  11  -8  -2    9.71    1.24
 -11  -8  -3    1.12    0.98
  11  -8   3    0.09    1.28
  11   8  -3    1.73    0.63
 -11   8  -3    1.41    1.02
  11   8   3    0.37    1.24
 -11   8  -3    1.65    0.85
  11  -8  -3    0.38    0.71
  11  -8  -3   -0.08    0.78
 -11  -8  -4    1.56    1.11
 -11   8  -4    1.47    0.91
 -11   8  -4    0.29    0.95
  11  -8  -4    3.41    1.08
  12  -8   0    6.25    2.87
  12  -8   0   11.26    1.30
  12   8   0    7.26    1.92
  12  -8   0    8.16    1.10
  12   8   0    3.86    2.63
  12   8  -1   -0.65    0.68
 -12  -8  -1   -1.05    0.88
  12  -8   1   -1.34    1.68
  12  -8   1   -2.01    1.01
  12  -8   1    0.51    0.68
  12  -8  -1    0.48    0.75
 -12   8  -1    0.10    0.78
  12   8   1   -1.14    1.60
 -12   8  -1   -1.36    0.84
  12   8   1   -0.25    0.70
  12  -8  -1    0.07    0.66
  12   8   1   -0.06    1.01
  12  -8   2    1.89    1.21
  12   8  -2    0.38    0.73
 -12  -8  -2    2.60    0.90
  12  -8  -2    0.52    0.67
  12  -8  -2    1.64    0.78
 -12   8  -2    0.41    0.79
 -12   8  -2    1.37    0.87
  12   8  -3    2.74    0.98
 -12  -8  -3    3.20    1.12
  12  -8  -3    3.27    0.86
 -12   8  -3    2.55    1.18
  12  -8  -3    3.33    0.86
 -12   8  -3    2.42    0.96
 -12  -8  -4    3.80    1.11
 -12   8  -4    3.23    1.20
  13   8   0    1.65    0.92
  13   8   0    0.98    0.66
  13  -8   0    3.01    0.93
  13  -8   0    1.44    0.67
  13   8  -1    1.01    0.75
  13  -8   1    1.61    0.72
  13  -8  -1    2.02    0.73
 -13   8  -1    1.97    0.95
  13   8   1    1.05    0.99
  13  -8  -1    1.55    0.85
  13   8  -2    0.25    0.67
 -13  -8  -2    0.49    0.79
  13  -8  -2    0.22    0.74
  13  -8  -2    0.78    0.63
 -13   8  -2   -0.53    0.72
 -13   8  -2    1.09    0.88
 -13  -8  -3    2.15    0.81
 -13   8  -3    0.62    0.85
 -13   8  -3    1.04    0.73
  14  -8   0   -0.57    0.55
  14   8   0    0.56    0.62
  14   8  -1   -0.29    0.51
  14  -8  -1    0.54    0.58
   0   9   0   -0.05    0.37
   0  -9   0   -0.07    0.38
   0   9   0    0.19    0.31
   0   9   0    0.24    0.50
   0   9   0    0.15    0.44
   0   9   1   57.63    2.08
   0   9  -1   54.86    2.22
   0   9   1   58.93    2.11
   0   9   1   58.86    2.01
   0  -9  -1   59.05    2.10
   0   9  -1   60.64    2.24
   0   9  -1   58.12    1.94
   0   9  -1   58.60    2.08
   0   9   2    9.48    1.11
   0   9  -2   10.55    0.73
   0  -9  -2    9.51    0.99
   0  -9  -2   10.57    0.96
   0   9  -2    8.47    0.97
   0  -9  -2    9.38    0.80
   0   9  -2    8.89    0.88
   0   9   2   10.58    0.65
   0   9  -2    9.68    0.81
   0   9  -2   11.22    1.14
   0  -9   2   10.07    0.71
   0  -9  -2    9.77    0.82
   0   9   2    9.64    0.56
   0  -9  -3   20.72    1.19
   0   9  -3   21.02    1.21
   0   9  -3   19.12    1.76
   0  -9  -3   20.01    1.26
   0   9  -3   22.45    1.12
   0   9  -3   20.61    1.46
   0  -9  -3   18.41    1.51
   0  -9  -3   20.97    1.23
   0   9  -3   22.60    1.36
   0  -9  -3   21.54    1.34
   0  -9  -4    0.25    0.57
   0   9  -4    1.10    0.49
   0  -9  -4   -0.14    0.56
   0   9  -4    1.26    0.59
   0   9  -4    0.47    0.79
   0   9  -4    1.20    0.99
   0  -9  -4    0.26    0.50
   0   9  -4    0.73    0.66
   0  -9  -5   62.97    2.84
   0   9  -5   62.02    3.24
   0  -9  -5   57.12    2.68
   0   9  -5   61.57    2.46
   0   9  -5   61.83    2.59
   0  -9  -5   64.75    2.80
   0   9  -5   64.70    3.05
   0  -9  -5   59.45    2.97
   0   9  -6    1.36    0.72
   0  -9  -6    1.49    1.16
   0   9  -6    1.77    1.02
   0  -9  -6    2.42    0.87
   0   9  -7    2.04    0.59
   0  -9  -7    2.03    0.73
   0   9  -7    1.79    1.26
  -1  -9   0    0.45    0.39
  -1  -9   0    0.01    0.36
   1   9   0   -0.07    0.29
   1  -9   0   -0.14    0.37
   1   9   0   -0.12    0.37
  -1   9   0    0.20    0.32
   1   9   0   -0.13    0.48
   1  -9   0   -0.09    0.30
  -1   9   0   -0.18    0.35
  -1   9   0    0.31    0.49
  -1   9   0    0.66    0.48
   1   9   0   -0.56    0.44
   1   9  -1   25.22    1.32
   1   9  -1   23.88    1.38
   1   9  -1   27.79    1.26
  -1  -9  -1   24.01    1.22
  -1   9   1   24.73    1.23
  -1   9   1   26.72    1.12
  -1   9   1   22.29    1.13
  -1  -9  -1   26.44    1.20
  -1   9  -1   27.07    1.10
   1   9   1   25.71    1.20
  -1   9  -1   24.97    1.55
   1   9   1   24.64    1.30
   1   9   1   26.58    1.34
  -1   9  -1   23.86    1.32
   1  -9  -1   23.99    1.23
  -1   9  -1   23.92    1.24
  -1   9   2  138.11    4.41
   1   9  -2  148.21    4.73
  -1  -9  -2  140.32    4.52
  -1  -9  -2  149.48    4.41
  -1  -9  -2  145.06    4.53
  -1   9   2  147.42    4.61
   1   9  -2  144.62    4.16
   1   9  -2  153.92    4.39
   1   9  -2  146.98    4.54
  -1  -9  -2  135.31    4.35
  -1  -9  -2  148.68    4.49
  -1   9  -2  149.71    4.69
  -1   9  -2  149.19    4.70
   1   9   2  149.05    4.31
   1  -9  -2  149.27    4.37
   1  -9  -2  147.71    4.29
  -1   9  -2  151.12    4.54
   1  -9  -2  143.29    4.53
  -1   9  -2  141.69    4.33
  -1  -9  -3   15.59    1.24
  -1  -9  -3   15.10    1.30
   1   9  -3   14.36    1.08
  -1  -9  -3   14.82    1.08
   1   9  -3   14.46    1.20
   1   9  -3   14.39    1.04
  -1  -9  -3   13.52    1.16
   1   9  -3   14.60    0.90
  -1  -9  -3   12.78    1.05
  -1   9  -3   13.73    0.92
  -1   9  -3   15.63    1.35
  -1   9  -3   13.10    1.13
   1  -9  -3   14.65    1.11
   1  -9  -3   13.70    1.00
   1  -9  -3   13.45    1.08
  -1   9  -3   15.25    1.05
  -1   9  -3   14.04    1.50
   1  -9  -3   14.35    0.97
   1   9  -4   15.77    1.59
   1   9  -4   19.04    1.40
  -1  -9  -4   18.36    1.42
   1   9  -4   17.33    1.55
  -1  -9  -4   17.18    1.53
  -1  -9  -4   18.51    1.41
   1   9  -4   19.10    1.16
  -1  -9  -4   18.58    1.34
   1  -9  -4   18.71    1.28
  -1   9  -4   15.49    1.16
  -1   9  -4   17.84    1.70
  -1   9  -4   19.82    1.77
   1  -9  -4   17.74    1.24
   1  -9  -4   17.32    1.41
   1  -9  -4   18.46    1.41
  -1   9  -4   19.39    1.30
  -1   9  -4   18.45    2.36
  -1   9  -4   17.77    1.56
  -1  -9  -5   11.55    1.33
   1   9  -5   14.77    1.90
  -1  -9  -5   12.94    1.49
   1   9  -5   13.49    1.65
  -1  -9  -5   11.35    1.59
   1   9  -5   12.91    1.20
   1   9  -5   14.07    1.13
   1  -9  -5   14.12    1.37
  -1   9  -5   13.66    1.53
   1  -9  -5   12.25    1.39
   1  -9  -5   15.78    1.55
  -1   9  -5   13.53    1.20
  -1   9  -5   15.22    1.81
  -1   9  -5   14.04    1.98
   1   9  -6    4.33    0.80
  -1  -9  -6    5.27    1.00
   1   9  -6    4.74    0.84
   1  -9  -6    4.39    1.06
  -1   9  -6    4.51    0.81
   1  -9  -6    5.33    1.01
  -1  -9  -7    8.11    0.96
   1   9  -7    5.04    0.73
  -1   9  -7    5.76    0.84
   1  -9  -7    3.35    0.92
  -1   9  -7    4.40    0.68
  -2   9   0   16.29    0.99
   2   9   0   18.04    0.89
  -2   9   0   17.48    1.01
   2   9   0   16.26    1.13
  -2   9   0   16.81    1.12
  -2  -9   0   17.27    0.97
   2   9   0   16.16    0.96
   2  -9   0   17.00    0.90
   2   9  -1  135.94    3.96
  -2  -9  -1  134.69    4.01
   2  -9   1  130.47    3.88
   2   9  -1  133.04    3.83
   2   9  -1  135.77    4.25
  -2   9   1  136.18    4.00
   2   9  -1  131.88    4.08
  -2  -9  -1  128.00    4.02
   2  -9  -1  129.06    4.02
  -2   9  -1  136.42    4.53
   2   9   1  130.26    4.11
  -2   9  -1  137.64    3.84
  -2   9  -1  128.17    4.12
   2  -9  -1  130.47    3.84
  -2   9  -1  131.61    4.07
   2   9   1  128.53    4.08
   2   9   1  133.86    3.97
   2   9   1  136.43    4.17
   2   9  -2  110.57    4.04
  -2  -9  -2  118.12    3.72
   2   9  -2  119.49    3.65
  -2  -9  -2  121.35    3.93
   2  -9   2  117.64    3.79
  -2  -9  -2  117.70    3.81
  -2  -9  -2  115.13    3.74
   2   9  -2  116.09    3.81
   2   9  -2  121.67    3.76
  -2   9   2  116.96    3.90
  -2   9  -2  114.84    3.74
   2   9   2  118.10    3.77
   2  -9  -2  113.69    3.78
  -2  -9   2  114.92    3.57
  -2   9  -2  114.45    3.87
   2   9   2  117.19    3.68
  -2   9  -2  119.56    3.59
  -2   9  -2  112.91    3.94
  -2   9  -2  118.66    3.81
   2  -9  -2  112.22    3.45
  -2   9  -2  118.85    3.53
   2  -9   3    5.22    0.68
  -2  -9  -3    6.85    0.91
  -2  -9  -3    6.89    0.89
   2   9  -3    6.22    0.95
  -2  -9  -3    5.99    0.87
  -2  -9  -3    7.77    1.19
   2   9  -3    5.60    0.86
  -2  -9  -3    5.69    0.92
   2   9  -3    4.29    0.71
   2   9  -3    6.19    0.70
  -2   9  -3    5.16    0.89
   2  -9  -3    5.88    0.69
  -2   9  -3    6.64    1.02
  -2   9  -3    5.58    1.07
  -2  -9   3    6.97    0.66
   2  -9  -3    5.90    0.71
  -2   9  -3    6.82    1.08
  -2   9  -3    5.72    0.68
  -2   9  -3    6.78    0.84
   2   9  -4    9.46    0.86
   2   9  -4    9.11    1.06
  -2  -9  -4    9.19    1.20
   2   9  -4    9.04    1.10
  -2  -9  -4    9.97    1.36
   2   9  -4   11.52    1.33
  -2  -9  -4   10.40    1.23
  -2  -9  -4    9.20    1.12
  -2  -9  -4    6.52    2.28
  -2   9  -4    9.88    1.34
  -2   9  -4    8.51    1.01
   2  -9  -4   12.94    1.29
  -2   9  -4    9.86    1.51
   2  -9  -4   10.17    1.05
  -2   9  -4   12.35    1.42
  -2   9  -4   10.24    1.62
   2  -9  -4    8.29    0.93
  -2   9  -4    8.58    0.96
  -2  -9  -5   16.48    1.56
   2   9  -5   16.96    1.64
  -2  -9  -5   19.07    1.85
  -2  -9  -5   15.06    1.59
  -2  -9  -5   12.59    1.63
   2   9  -5   16.99    1.17
   2   9  -5   16.39    1.83
   2  -9  -5   18.37    1.44
  -2   9  -5   17.49    1.32
  -2   9  -5   14.35    1.86
  -2   9  -5   14.77    1.30
  -2   9  -5   18.67    2.25
  -2  -9  -6   -0.82    0.70
   2   9  -6    0.23    0.71
   2   9  -6   -1.11    0.82
   2   9  -6   -0.09    0.61
  -2  -9  -6    0.07    0.82
   2  -9  -6   -0.29    0.90
   2  -9  -6   -0.92    1.22
  -2   9  -6    0.43    0.69
  -2   9  -6    0.63    0.68
  -2  -9  -7    0.20    0.58
   2   9  -7   -1.22    0.62
  -2   9  -7    0.73    0.51
  -2   9  -7    0.25    0.62
  -3   9   0   70.79    2.51
  -3   9   0   75.21    2.67
   3   9   0   72.76    2.76
  -3   9   0   73.39    2.45
  -3  -9   0   74.25    2.42
  -3  -9  -1   15.89    1.05
   3   9  -1   14.67    0.86
   3   9  -1   13.99    1.25
   3   9  -1   16.20    0.99
  -3   9   1   12.64    1.09
  -3  -9  -1   15.20    0.99
   3  -9   1   15.34    0.94
  -3   9   1   15.48    0.56
  -3   9   1   14.62    0.60
  -3   9  -1   13.95    0.87
   3   9   1   14.04    1.02
   3  -9  -1   16.36    0.90
   3   9   1   15.93    0.93
  -3  -9   1   15.99    1.22
  -3   9  -1   14.88    1.09
  -3   9  -1   13.80    1.08
  -3   9  -1   14.88    1.26
  -3   9  -1   14.64    1.07
   3  -9  -1   16.02    1.19
   3   9   1   15.71    1.20
  -3   9  -1   18.51    1.28
  -3   9   2   54.44    2.26
  -3  -9  -2   52.78    2.08
  -3  -9  -2   54.85    2.15
  -3   9   2   49.42    1.94
   3   9  -2   50.41    1.79
   3   9  -2   49.33    2.50
  -3  -9  -2   52.22    2.07
   3   9  -2   50.80    1.93
  -3  -9  -2   48.95    2.09
   3  -9   2   53.10    2.24
   3   9  -2   50.26    2.07
  -3  -9  -2   50.99    2.40
  -3   9  -2   54.01    2.21
   3   9   2   50.49    2.21
  -3   9  -2   51.59    2.23
  -3  -9   2   50.70    1.93
   3   9   2   51.60    2.05
   3   9   2   53.78    2.20
  -3   9  -2   54.03    2.28
  -3   9  -2   51.84    1.97
  -3   9  -2   52.08    2.37
  -3   9  -2   51.30    1.99
   3  -9  -2   51.25    1.85
   3   9  -3    2.88    0.60
  -3  -9  -3    3.24    0.93
   3   9  -3    3.85    0.78
   3   9  -3    3.77    0.91
  -3  -9  -3    3.92    0.89
   3   9  -3    3.29    0.71
   3  -9   3    4.67    0.85
  -3  -9  -3    4.61    0.93
  -3   9  -3    4.42    0.94
  -3   9  -3    3.50    0.95
  -3   9  -3    3.69    1.10
   3  -9  -3    3.00    1.16
  -3   9  -3    3.94    1.04
  -3   9  -3    3.19    0.69
  -3   9  -3    4.71    0.96
   3  -9  -3    2.75    0.62
   3   9   3    3.91    0.63
  -3  -9  -4   30.75    2.22
  -3  -9  -4   30.03    1.83
  -3  -9  -4   28.01    1.75
   3   9  -4   29.09    1.88
   3   9  -4   30.27    1.70
  -3  -9  -4   30.36    1.92
  -3  -9  -4   29.69    2.12
  -3   9  -4   31.37    1.96
   3  -9  -4   28.26    1.78
  -3   9  -4   29.07    1.58
  -3   9  -4   30.35    1.66
  -3   9  -4   32.80    2.17
   3  -9  -4   27.30    1.61
  -3   9  -4   26.47    2.26
  -3   9  -4   30.73    2.19
  -3  -9  -5    0.17    0.72
   3   9  -5    0.67    1.14
  -3  -9  -5    1.31    1.38
  -3  -9  -5    0.38    1.01
   3   9  -5   -0.04    0.68
   3   9  -5    0.92    0.86
  -3  -9  -5    1.29    1.11
  -3   9  -5    2.50    1.28
  -3   9  -5   -1.63    1.27
   3  -9  -5    1.00    0.96
  -3   9  -5    0.65    1.00
  -3   9  -5    0.47    0.59
  -3   9  -5   -0.87    0.78
   3   9  -6   17.64    1.27
  -3  -9  -6   16.65    1.51
  -3  -9  -6   18.58    2.00
   3   9  -6   21.79    1.42
  -3   9  -6   18.18    1.90
   3  -9  -6   16.45    1.43
  -3   9  -6   20.36    1.40
   3  -9  -6   20.14    1.78
  -3   9  -6   18.74    1.78
  -3  -9  -7    8.73    1.12
  -3  -9  -7    8.31    0.90
  -3   9  -7   12.38    0.95
  -4   9   0    8.09    0.73
  -4   9   0    9.08    0.94
   4   9   0    6.69    0.79
  -4   9   0   10.30    1.17
  -4  -9   0    9.13    1.09
  -4  -9   0    7.20    0.72
   4   9   0    8.48    1.10
  -4   9   0    9.44    1.07
  -4   9   0    8.94    1.03
  -4   9   0    7.65    0.92
   4  -9   0    7.64    0.77
  -4   9   1   64.40    2.44
  -4   9   1   65.01    2.57
  -4  -9  -1   62.13    2.64
   4  -9   1   62.04    2.30
   4   9  -1   65.57    2.19
   4   9  -1   66.41    2.75
  -4  -9  -1   66.38    2.32
   4  -9   1   64.58    2.27
  -4   9   1   64.27    2.42
  -4  -9  -1   66.23    2.38
   4   9  -1   65.05    2.31
  -4   9  -1   65.05    2.71
  -4   9  -1   67.71    2.54
   4   9   1   67.99    2.30
  -4   9  -1   64.29    2.44
  -4   9  -1   67.67    2.61
  -4  -9   1   62.69    2.39
   4   9   1   65.45    2.69
  -4   9  -1   64.02    2.16
  -4   9  -1   65.19    2.53
   4  -9  -1   62.43    2.29
   4   9   1   63.32    2.39
  -4   9  -1   66.17    2.69
   4  -9  -1   65.27    2.21
   4  -9   2   53.00    2.40
   4  -9   2   52.18    2.01
  -4  -9  -2   51.71    2.21
  -4  -9  -2   52.88    2.20
  -4   9   2   53.74    2.36
  -4  -9  -2   50.33    2.58
  -4  -9  -2   53.74    2.18
   4   9  -2   52.37    2.02
   4   9  -2   52.28    2.08
  -4  -9  -2   57.01    2.27
   4   9  -2   53.19    1.89
  -4   9   2   53.68    1.93
  -4  -9  -2   54.14    2.35
   4  -9   2   50.89    1.99
   4   9   2   51.86    2.20
  -4   9  -2   53.22    2.52
  -4   9  -2   57.30    2.05
  -4   9  -2   50.84    2.28
  -4  -9   2   52.90    1.93
  -4   9  -2   55.09    2.03
  -4   9  -2   53.87    2.22
  -4   9  -2   53.49    2.39
   4   9   2   51.97    2.01
   4  -9  -2   53.40    2.05
  -4   9  -2   50.77    2.27
   4   9   2   52.86    2.34
  -4  -9  -3   34.60    2.08
  -4  -9  -3   34.09    1.79
  -4  -9  -3   36.72    1.87
   4   9  -3   34.20    1.71
   4  -9   3   34.68    1.99
  -4  -9  -3   37.61    1.98
   4   9  -3   37.58    1.51
  -4  -9  -3   36.08    2.85
   4   9  -3   37.34    1.86
   4   9  -3   37.20    1.68
  -4  -9  -3   37.61    1.99
   4  -9  -3   32.98    1.75
  -4   9  -3   35.60    2.05
  -4   9  -3   33.58    2.01
  -4   9  -3   33.84    2.23
   4  -9  -3   35.74    1.52
  -4   9  -3   37.56    1.79
  -4   9  -3   33.35    2.83
   4   9   3   35.60    1.70
  -4   9  -3   37.15    2.00
   4   9  -4   30.05    1.67
  -4  -9  -4   29.77    1.80
  -4  -9  -4   27.86    2.13
  -4  -9  -4   29.98    1.83
   4   9  -4   30.72    1.87
   4   9  -4   28.00    1.40
  -4  -9  -4   30.09    2.03
  -4  -9  -4   31.58    2.09
   4   9  -4   28.48    1.63
  -4   9  -4   28.35    2.21
  -4   9  -4   24.89    3.01
  -4   9  -4   28.75    1.64
  -4   9  -4   29.51    1.62
   4  -9  -4   27.55    1.45
   4  -9  -4   28.13    1.86
  -4   9  -4   27.88    1.90
   4   9  -5   10.45    1.00
  -4  -9  -5    9.41    2.89
  -4  -9  -5   11.15    1.33
  -4  -9  -5   10.58    1.36
  -4  -9  -5   11.70    2.28
  -4  -9  -5   12.61    2.18
   4   9  -5   12.35    1.24
  -4   9  -5   12.12    1.46
   4  -9  -5   10.83    1.53
  -4   9  -5   10.50    2.56
  -4   9  -5   12.75    3.32
  -4   9  -5   12.84    1.22
   4  -9  -5   11.18    1.19
  -4   9  -5   12.10    1.34
  -4   9  -5    8.97    2.53
   4   9  -6    9.57    0.97
   4   9  -6    8.66    1.63
  -4  -9  -6    8.76    1.17
  -4  -9  -6   10.52    1.28
  -4   9  -6    9.14    1.15
   4  -9  -6    7.29    1.07
  -4   9  -6    8.13    1.15
  -4   9  -6    7.01    0.87
   4  -9  -6   10.00    1.43
  -4  -9  -7   -0.06    1.09
  -4  -9  -7    0.14    0.57
  -4   9  -7    0.11    0.51
  -4   9  -7    0.39    0.85
  -5   9   0   41.11    1.91
  -5   9   0   38.78    1.92
   5   9   0   41.29    1.85
  -5  -9   0   39.68    1.53
  -5   9   0   34.23    1.84
  -5  -9   0   35.61    1.93
  -5   9   0   37.40    1.90
   5  -9   0   36.05    1.64
   5  -9   0   39.59    1.61
   5   9   0   38.79    2.08
   5   9   0   38.10    1.60
   5  -9   1    7.57    0.81
  -5   9   1    6.48    0.88
  -5   9   1    8.33    1.13
  -5  -9  -1    7.16    0.83
   5   9  -1    6.66    0.81
  -5  -9  -1    4.91    0.76
   5  -9   1    7.66    0.85
  -5  -9  -1    7.97    1.22
   5   9  -1    8.52    0.77
  -5   9   1    8.47    1.03
   5  -9  -1    7.73    0.77
  -5   9  -1    8.88    1.14
   5   9   1    8.12    1.34
  -5   9  -1    7.28    1.03
   5  -9  -1    8.25    0.85
  -5   9  -1    7.26    1.12
  -5   9  -1    9.46    1.30
  -5  -9   1    9.00    1.02
   5   9   1    7.02    0.91
  -5   9  -1    8.36    0.95
  -5   9  -1    8.39    0.94
  -5  -9  -2   14.68    1.13
   5  -9   2   12.11    1.33
  -5  -9  -2   14.62    1.11
  -5  -9  -2   13.52    1.64
  -5  -9  -2   14.36    1.34
   5   9  -2   14.06    0.92
  -5   9   2   15.32    1.44
  -5   9   2   13.49    0.85
   5  -9   2   15.65    1.06
   5   9  -2   13.11    1.02
  -5  -9  -2   12.55    1.13
   5  -9   2   14.17    1.11
  -5  -9  -2   14.37    1.23
  -5  -9   2   13.46    0.87
  -5   9  -2   14.42    1.00
   5   9   2   13.46    1.32
   5  -9  -2   13.62    0.89
  -5   9  -2   13.13    1.01
  -5   9  -2   17.03    1.79
  -5   9  -2   14.55    1.15
   5   9   2   12.41    1.07
   5   9   2   13.47    1.43
  -5   9  -2   14.46    1.23
  -5   9  -2   12.24    1.28
   5  -9  -2   12.72    1.11
  -5   9  -2   14.33    1.58
  -5   9  -2   14.57    1.60
  -5  -9  -3    2.71    0.82
  -5  -9  -3    3.65    0.99
   5   9  -3    3.69    0.62
  -5  -9  -3    4.92    1.08
   5   9  -3    2.56    0.79
  -5  -9  -3    3.60    0.77
   5   9  -3    2.21    0.75
   5   9  -3    3.82    0.67
  -5  -9  -3    3.80    1.40
  -5  -9  -3    4.32    0.88
  -5   9  -3    1.70    2.02
   5  -9  -3    3.60    0.62
  -5   9  -3    1.45    1.01
  -5   9  -3    2.99    0.63
  -5   9  -3    3.51    0.90
   5   9   3    3.69    0.90
   5  -9  -3    3.01    0.89
  -5   9  -3    4.69    1.06
  -5   9  -3    2.02    1.07
  -5  -9  -4    0.18    1.07
   5   9  -4   -0.20    1.03
  -5  -9  -4    0.63    1.07
   5   9  -4    0.29    0.62
   5   9  -4    0.42    0.46
  -5  -9  -4    0.92    1.81
  -5  -9  -4   -0.88    0.88
   5   9  -4    0.04    0.76
  -5  -9  -4   -0.04    0.72
  -5   9  -4   -0.71    0.59
  -5   9  -4    2.10    1.92
  -5   9  -4   -1.09    1.02
  -5   9  -4   -0.23    0.61
  -5   9  -4    0.03    0.98
   5  -9  -4   -0.82    0.50
  -5  -9  -5   -0.29    0.72
  -5  -9  -5    1.92    1.36
  -5  -9  -5   -0.35    1.20
   5   9  -5    0.16    0.82
   5   9  -5   -0.31    0.53
  -5  -9  -5    1.27    0.84
  -5  -9  -5    0.90    1.84
  -5   9  -5   -1.21    0.66
  -5   9  -5    0.81    1.41
   5  -9  -5    0.26    0.76
  -5   9  -5   -2.65    1.78
  -5   9  -5    0.43    0.80
  -5   9  -5    0.89    3.73
  -5   9  -5    0.02    0.53
  -5  -9  -6    1.13    0.76
   5   9  -6    0.57    0.77
  -5  -9  -6    2.03    0.87
   5  -9  -6    1.66    1.02
  -5   9  -6    1.66    0.88
  -5   9  -6    1.25    0.69
  -5   9  -6    1.41    0.62
  -5   9  -6    1.96    0.78
  -6   9   0   -0.42    0.47
  -6   9   0   -0.30    0.61
   6  -9   0   -0.06    0.38
  -6  -9   0    0.33    0.38
  -6   9   0   -0.52    0.58
   6   9   0   -0.73    0.71
   6  -9   0    0.08    0.49
  -6   9   0   -0.24    0.63
  -6  -9   0   -0.28    0.60
   6   9   0   -0.39    0.38
  -6   9   1   12.57    1.25
   6  -9   1   12.04    1.05
  -6  -9  -1   14.37    1.06
   6  -9   1   12.68    0.97
   6   9  -1   11.44    0.93
  -6   9   1   13.78    1.32
   6   9  -1   12.20    1.72
  -6  -9  -1   13.08    1.57
  -6   9  -1   12.38    1.41
   6   9   1   11.93    1.21
   6  -9  -1   12.26    0.91
  -6   9  -1   11.63    1.07
  -6   9  -1   11.62    1.47
  -6   9  -1   12.00    1.05
   6   9   1   11.25    0.96
  -6   9  -1   12.46    1.16
  -6  -9   1   11.84    1.07
   6   9   1   13.07    1.52
   6  -9  -1   10.02    0.99
  -6  -9  -2   14.90    1.23
  -6  -9  -2   12.06    1.17
   6  -9   2   14.61    1.63
  -6  -9  -2   18.49    2.30
  -6  -9  -2   13.11    1.44
  -6   9   2   13.37    1.42
  -6  -9  -2   17.19    1.69
  -6  -9  -2   13.68    1.17
   6   9  -2   13.72    1.09
   6   9  -2   13.22    0.95
   6  -9   2   14.71    1.12
  -6   9  -2   14.05    1.63
   6   9   2   11.96    1.34
  -6   9  -2   12.52    1.05
  -6   9  -2   14.94    1.70
  -6   9  -2   16.49    2.06
   6   9   2   13.91    1.13
  -6   9  -2   13.11    1.23
   6  -9  -2   15.02    1.16
  -6  -9   2   14.37    0.69
  -6   9  -2   13.11    1.12
  -6   9  -2   17.26    1.81
  -6   9  -2   13.81    1.27
   6  -9  -2   13.94    0.97
   6   9   2   13.80    1.55
  -6  -9  -3    2.08    0.73
   6  -9   3    1.28    1.06
  -6  -9  -3    0.88    0.72
  -6  -9  -3    1.35    1.03
  -6  -9  -3    1.39    1.19
  -6  -9  -3    1.28    1.09
   6   9  -3    1.38    0.60
   6   9  -3    2.61    0.88
  -6  -9  -3    2.48    1.01
  -6   9  -3    0.60    0.73
  -6   9  -3    1.87    0.66
   6  -9  -3    1.46    0.60
  -6   9  -3    2.91    1.34
   6  -9  -3    2.07    0.84
   6   9   3    2.13    1.24
  -6   9  -3    1.52    1.23
  -6   9  -3    1.39    0.68
  -6   9  -3    1.23    0.81
  -6   9  -3    1.92    1.48
  -6   9  -3    1.49    1.33
  -6  -9  -4    5.62    1.49
   6   9  -4    4.55    1.12
  -6  -9  -4    0.93    1.44
  -6  -9  -4    2.40    1.01
   6   9  -4    4.16    0.86
  -6  -9  -4    4.83    1.02
   6   9  -4    4.10    0.68
  -6  -9  -4    6.88    2.05
  -6   9  -4    4.40    1.24
  -6   9  -4    3.23    0.89
  -6   9  -4    2.54    1.65
  -6   9  -4    3.46    1.34
  -6   9  -4    1.67    1.72
  -6   9  -4    1.85    1.68
   6  -9  -4    4.15    0.76
  -6  -9  -5   18.75    1.58
  -6  -9  -5   13.96    1.73
  -6  -9  -5   12.24    1.69
   6   9  -5   16.61    1.19
   6  -9  -5   16.85    1.53
  -6   9  -5   13.97    1.46
  -6   9  -5   18.29    1.32
  -6   9  -5   17.95    2.08
  -6   9  -5   14.75    1.61
  -6   9  -5   16.52    1.47
  -6  -9  -6    8.36    1.25
  -6  -9  -6    6.80    1.22
  -6   9  -6    5.15    0.92
  -6   9  -6    4.07    0.80
   7   9   0    1.28    0.93
   7  -9   0    0.49    0.41
  -7   9   0    0.73    0.69
  -7   9   0    0.74    0.70
  -7  -9   0    0.29    0.60
  -7   9   0    0.27    0.64
   7   9   0    0.27    0.46
   7   9   0    0.33    0.53
   7  -9   0    0.09    0.56
  -7   9   1   20.53    2.67
  -7  -9  -1   21.00    1.27
   7   9  -1   19.03    1.26
   7  -9   1   19.40    1.25
   7  -9   1   18.53    1.72
  -7   9   1   21.61    1.35
   7   9  -1   20.28    1.39
   7  -9   1   19.17    1.48
  -7   9   1   20.02    1.60
   7   9  -1   20.98    2.24
   7   9   1   20.23    1.25
   7   9   1   19.78    1.82
  -7  -9   1   17.89    1.27
   7  -9  -1   18.95    1.27
   7   9   1   18.39    1.49
   7  -9  -1   20.37    1.21
  -7   9  -1   17.68    1.30
  -7   9  -1   18.33    1.66
  -7   9  -1   19.19    1.23
  -7  -9  -2    9.86    1.73
   7  -9   2    8.71    0.97
  -7  -9  -2   10.31    1.55
   7  -9   2   10.31    1.16
   7  -9   2    8.30    1.38
   7   9  -2   10.30    0.95
  -7  -9  -2   12.75    1.16
  -7  -9  -2   10.12    1.47
   7   9  -2   11.69    1.20
  -7  -9  -2    9.70    1.11
  -7   9  -2    9.99    1.26
  -7   9  -2   12.90    1.29
   7  -9  -2    9.49    0.96
  -7   9  -2   11.18    1.83
   7  -9  -2    9.56    1.39
  -7   9  -2   10.86    1.29
   7   9   2   10.83    1.18
   7   9   2   11.46    1.52
   7   9   2    8.72    1.35
  -7   9  -2    9.81    1.53
   7   9  -3    4.62    0.72
  -7  -9  -3    3.91    0.89
  -7  -9  -3    3.38    1.47
  -7  -9  -3    5.70    1.55
   7  -9   3    4.31    1.14
  -7  -9  -3    4.06    1.01
   7   9  -3    4.52    0.83
  -7  -9  -3    6.38    1.19
  -7   9  -3    4.50    1.05
   7   9   3    4.50    1.04
  -7   9  -3    3.73    1.47
  -7   9  -3    4.52    0.96
   7  -9  -3    4.71    0.77
   7  -9  -3    5.47    1.00
  -7   9  -3    5.03    0.85
  -7   9  -3    5.71    1.07
  -7   9  -3    4.56    1.76
  -7   9  -3    6.02    1.19
   7   9  -4   37.46    2.01
  -7  -9  -4   41.31    3.14
  -7  -9  -4   42.77    2.47
   7   9  -4   37.53    3.50
  -7  -9  -4   42.47    2.07
  -7  -9  -4   41.82    2.23
   7   9  -4   38.97    1.78
   7  -9  -4   40.88    1.85
  -7   9  -4   39.84    2.36
  -7   9  -4   44.24    3.08
  -7   9  -4   40.74    1.96
  -7   9  -4   47.44    4.35
  -7   9  -4   41.33    2.20
  -7   9  -4   46.26    2.61
  -7   9  -4   42.27    2.23
  -7  -9  -5    2.83    1.17
  -7  -9  -5    2.38    0.79
   7   9  -5    4.39    0.85
  -7  -9  -5    4.79    1.10
  -7  -9  -5    2.84    1.04
  -7   9  -5    3.09    0.77
   7  -9  -5    2.53    0.99
  -7   9  -5    3.57    1.13
  -7   9  -5    3.18    0.87
  -7   9  -5    2.57    2.42
  -7   9  -5    3.45    0.93
  -7   9  -5   -1.00    1.17
  -7  -9  -6    2.55    1.13
  -7  -9  -6    4.44    0.92
  -7   9  -6    3.42    0.80
  -7   9  -6    5.40    0.82
   8  -9   0   62.96    3.35
   8  -9   0   66.73    3.32
  -8   9   0   56.85    2.58
   8   9   0   52.12    2.96
  -8   9   0   58.27    2.71
   8   9   0   53.73    3.09
   8  -9   0   59.25    2.44
  -8  -9   0   58.45    2.62
   8   9   0   54.64    2.61
   8   9  -1   38.88    1.82
  -8  -9  -1   38.59    2.25
   8  -9   1   36.59    1.85
   8   9  -1   27.61    3.10
   8  -9   1   32.79    2.97
   8  -9   1   34.06    1.83
  -8  -9  -1   38.74    1.63
  -8   9   1   36.95    1.71
   8   9  -1   37.66    2.03
  -8   9   1   36.10    2.14
  -8  -9   1   41.29    1.84
   8   9   1   40.15    2.60
   8   9   1   39.20    2.26
   8  -9  -1   39.21    1.85
  -8   9  -1   38.70    2.17
  -8   9  -1   35.98    2.16
   8  -9  -1   38.99    1.93
  -8   9  -1   38.84    1.62
   8   9   1   39.23    2.00
   8  -9   2   15.29    1.28
   8  -9   2   13.75    1.39
  -8  -9  -2   13.24    1.67
   8   9  -2   15.97    1.18
   8  -9   2   17.56    2.01
   8   9  -2   13.73    1.32
  -8  -9  -2   19.76    1.87
  -8  -9  -2   15.18    1.36
   8  -9  -2   15.35    1.16
   8   9   2   13.21    1.31
   8   9   2   15.80    1.81
  -8   9  -2   16.97    1.38
  -8   9  -2   17.27    1.58
  -8   9  -2   17.06    1.89
   8  -9  -2   15.09    1.30
  -8   9  -2   17.27    1.51
   8   9   2   15.34    1.85
  -8  -9  -3    9.65    1.30
   8  -9   3   11.36    1.68
   8   9  -3   10.64    1.37
   8   9  -3    7.83    1.08
   8   9  -3   13.84    1.08
   8  -9  -3   10.53    1.06
  -8   9  -3    8.49    1.30
  -8   9  -3   10.41    1.26
   8   9   3   13.17    1.64
   8  -9  -3   10.06    1.26
  -8  -9  -4    5.90    1.22
  -8  -9  -4    4.24    1.52
  -8  -9  -4    3.30    1.10
   8   9  -4    5.62    0.83
  -8   9  -4    3.86    1.14
  -8   9  -4    5.54    1.03
  -8   9  -4    3.91    1.05
  -8   9  -4    4.42    1.71
   8  -9  -4    5.10    0.87
  -8  -9  -5    0.51    0.85
   8   9  -5    0.48    1.23
  -8  -9  -5   -3.54    2.03
  -8   9  -5    0.76    0.79
   8  -9  -5    1.39    1.24
  -8   9  -5   -1.20    1.61
  -8   9  -5    0.90    0.75
  -8   9  -6   -0.16    0.68
   9   9   0    0.90    0.92
   9  -9   0    3.40    1.83
   9   9   0    3.29    0.80
  -9   9   0    3.20    0.95
  -9   9   0    3.21    0.96
   9  -9   0    2.79    0.76
  -9  -9   0    3.54    0.99
   9  -9   0    3.26    0.86
  -9   9   1   68.55    2.21
  -9   9   1   64.35    3.05
   9  -9   1   65.09    3.64
   9   9  -1   61.99    2.89
   9   9  -1   64.32    2.68
   9  -9   1   67.39    2.75
  -9  -9   1   62.89    2.27
  -9   9  -1   57.88    2.72
  -9   9  -1   54.58    3.04
   9   9   1   68.34    3.16
   9  -9  -1   63.06    2.57
   9  -9  -1   63.94    2.64
   9   9   1   66.54    3.55
   9  -9   2   50.08    2.42
   9  -9   2   52.66    3.18
   9   9  -2   51.32    2.25
   9  -9   2   49.11    2.46
   9   9  -2   54.75    2.54
  -9  -9  -2   52.87    2.25
   9  -9  -2   52.37    2.37
  -9   9  -2   49.79    2.38
   9   9   2   54.05    2.45
  -9   9  -2   53.51    2.22
   9  -9  -2   50.32    2.23
   9   9   2   51.26    2.98
   9   9  -3   11.70    1.33
  -9  -9  -3   10.79    1.82
   9   9  -3   12.78    1.70
   9   9  -3   11.17    1.11
   9  -9   3   11.97    2.29
  -9  -9  -3    9.83    1.42
  -9  -9  -3   13.95    1.61
   9  -9  -3   13.58    1.23
  -9   9  -3   14.11    1.86
   9   9   3    9.91    1.73
  -9   9  -3   11.23    1.48
   9  -9  -3   14.76    1.40
  -9   9  -3   13.02    1.44
  -9  -9  -4    3.19    1.58
  -9  -9  -4    3.68    1.11
   9   9  -4    3.05    0.77
  -9  -9  -4    2.14    1.03
  -9   9  -4    3.58    1.39
   9  -9  -4    0.95    0.74
   9  -9  -4    4.19    1.16
  -9   9  -4    3.14    1.46
  -9   9  -4    0.66    0.79
  -9   9  -4    2.68    1.08
  -9  -9  -5   -2.04    1.53
  -9  -9  -5    0.84    0.84
  -9   9  -5   -0.21    0.72
  -9   9  -5    0.57    0.84
  -9   9  -5    1.71    1.52
 -10   9   0    1.49    0.78
  10  -9   0    1.46    0.74
 -10   9   0    1.73    0.81
  10   9   0    0.95    0.69
  10  -9   0    0.92    0.71
  10  -9   0   -1.64    1.79
  10   9   0    1.84    1.17
  10   9   0    2.42    1.84
  10   9  -1   11.69    1.58
  10  -9   1   14.47    3.22
  10  -9   1   10.42    1.27
 -10  -9  -1    8.40    1.33
  10  -9  -1   11.27    1.26
  10   9   1    7.58    2.76
 -10   9  -1    9.20    1.30
 -10   9  -1    8.61    1.31
  10   9   1   11.67    1.84
  10  -9   2    0.34    1.45
  10   9  -2    1.56    0.98
  10  -9   2    2.92    1.15
  10   9  -2    0.56    0.60
  10  -9   2    2.02    0.85
 -10  -9  -2    0.50    0.96
  10   9   2    1.59    1.14
  10  -9  -2    0.92    0.66
  10  -9  -2    1.56    0.79
 -10   9  -2    0.35    0.96
  10   9   2   -0.20    1.23
 -10   9  -2    0.53    0.92
  10   9   2    1.75    0.92
  10   9  -3   18.34    1.31
 -10  -9  -3   20.11    1.57
  10  -9   3   16.51    1.92
 -10  -9  -3   23.85    3.47
 -10   9  -3   19.28    1.68
 -10   9  -3   16.68    2.69
  10  -9  -3   19.05    1.73
  10   9   3   20.35    1.92
 -10   9  -3   19.54    1.51
  10  -9  -3   18.83    1.39
  10   9  -4   -0.12    0.71
 -10  -9  -4    0.39    1.31
 -10  -9  -4    1.97    1.72
  10  -9  -4   -0.50    1.00
 -10   9  -4   -1.41    1.13
 -10   9  -4    0.48    0.75
  10  -9  -4    0.41    0.77
 -10   9  -5    1.35    0.66
 -10   9  -5    0.59    1.71
 -11   9   0    2.24    0.99
  11  -9   0    2.23    0.83
 -11  -9   0    2.92    0.82
 -11   9   0    3.50    0.83
  11   9   0    5.43    2.29
  11   9   0    2.34    0.86
  11  -9   0    3.52    2.42
  11  -9   0    2.38    0.76
  11   9   0    3.74    1.53
 -11  -9  -1    1.99    0.90
  11  -9   1    2.02    0.97
  11  -9   1   -2.06    1.53
  11  -9   1    3.87    1.02
  11   9  -1    3.82    0.93
  11  -9  -1    3.60    0.81
  11  -9  -1    3.02    0.80
  11   9   1    3.83    0.99
 -11   9  -1    3.27    1.16
 -11   9  -1    3.13    1.05
  11   9   1    3.37    1.59
  11  -9   2   -1.59    1.32
  11   9  -2    0.83    0.64
 -11  -9  -2    0.13    1.13
  11  -9   2   -0.28    0.82
  11  -9  -2    0.66    0.76
  11   9   2   -0.57    0.94
  11  -9  -2    0.02    0.68
  11   9   2    0.72    1.19
 -11   9  -2    1.24    1.64
  11   9  -3    4.13    0.82
 -11  -9  -3    4.04    1.16
  11  -9  -3    6.28    1.05
 -11   9  -3    4.52    0.96
 -11   9  -3    3.45    1.09
  11  -9  -3    2.56    0.78
 -11  -9  -4   -0.35    1.07
 -11   9  -4   -0.74    1.01
  11  -9  -4    0.82    1.63
 -11   9  -4   -0.35    0.61
  12   9   0    4.14    1.05
  12  -9   0    7.01    1.16
  12  -9   0    8.49    1.13
  12  -9   1    0.72    1.06
 -12  -9  -1    1.87    0.86
  12  -9   1    1.34    1.79
  12  -9   1    2.22    0.76
  12   9   1    1.87    0.96
  12   9   1   -1.84    1.63
 -12   9  -1    1.39    0.92
  12  -9  -1    0.98    1.22
  12   9   1    1.80    0.80
  12  -9  -1    1.46    0.69
 -12   9  -1    1.21    0.80
  12   9  -2    1.07    0.72
 -12  -9  -2    1.32    0.89
  12  -9  -2    0.78    0.70
  12  -9  -2    0.30    0.77
 -12   9  -2    1.33    0.93
 -12   9  -2    0.47    0.80
  12   9  -3    2.59    0.76
 -12  -9  -3    2.67    1.68
 -12   9  -3    1.22    0.75
  12  -9  -3    2.83    0.82
  12  -9  -3    2.92    0.80
 -12  -9  -4    0.15    0.90
 -12   9  -4    0.74    0.64
 -12   9  -4   -0.11    0.84
  13   9   0    0.00    0.62
  13  -9   0    0.57    0.92
  13   9   0    0.84    0.82
  13  -9   0    0.41    0.68
  13   9  -1    1.98    0.84
  13  -9   1   -0.25    0.69
  13   9   1    0.44    0.73
  13  -9  -1    0.05    0.60
  13  -9  -1    0.04    0.71
 -13  -9  -2    1.90    0.74
 -13   9  -2    1.02    0.80
 -13   9  -2    2.66    0.77
  13  -9  -2    2.13    0.71
 -13  -9  -3    0.39    0.89
 -13   9  -3    1.29    1.05
  14  -9   0    2.71    0.64
  14   9   0    1.69    0.68
  14   9  -1    1.50    0.56
  14  -9  -1    2.02    0.57
   0  10   0   72.02    2.60
   0 -10   0   73.54    2.49
   0 -10   0   75.22    2.40
   0  10   0   71.57    2.45
   0  10   0   71.99    2.31
   0  10   0   73.90    2.61
   0  10  -1  333.41    8.98
   0  10   1  314.04    8.72
   0  10  -1  312.99    8.99
   0  10   1  324.40    8.80
   0 -10  -1  319.74    8.83
   0  10   1  324.89    8.88
   0  10  -1  310.01    8.93
   0  10  -2    9.46    1.05
   0  10   2   11.01    0.64
   0  10  -2   10.26    1.18
   0 -10  -2   11.49    1.16
   0  10  -2    9.58    1.16
   0 -10   2   11.35    0.82
   0  10  -2   10.48    0.99
   0 -10  -2   11.75    0.88
   0  10   2   10.60    1.58
   0  10   2   11.99    1.20
   0  10   2   10.13    0.79
   0  10  -2   11.77    1.20
   0 -10  -2   12.06    1.17
   0 -10  -2   12.03    0.93
   0  10  -2   10.57    0.79
   0 -10  -3    1.99    0.91
   0  10  -3    3.25    1.41
   0 -10  -3    3.44    1.16
   0 -10  -3    3.75    0.74
   0 -10  -3    3.45    1.05
   0 -10  -3    3.26    0.63
   0  10  -3    4.01    1.13
   0  10  -3    4.44    0.71
   0  10  -3    3.36    0.58
   0 -10  -4    0.65    0.71
   0  10  -4   -0.02    0.56
   0  10  -4    0.29    0.47
   0  10  -4    0.03    0.80
   0 -10  -4    0.50    0.71
   0 -10  -4    0.49    0.61
   0  10  -4    0.72    0.67
   0 -10  -4    0.61    0.57
   0  10  -5   22.42    1.44
   0  10  -5   17.80    2.06
   0  10  -5   23.37    1.52
   0 -10  -5   23.34    1.84
   0 -10  -5   20.11    1.66
   0  10  -5   21.08    1.89
   0 -10  -5   22.75    1.67
   0 -10  -6   -0.06    0.73
   0  10  -6    0.26    0.55
   0  10  -6    0.28    0.70
   0  10  -6    0.04    0.65
   0 -10  -6    0.28    0.72
   0 -10  -7    0.13    0.69
   0  10  -7    3.22    0.67
   1 -10   0   13.90    0.93
  -1 -10   0   14.71    0.94
  -1  10   0   13.93    1.03
   1  10   0   14.89    1.09
  -1  10   0   14.65    0.84
  -1 -10   0   14.90    0.96
   1 -10   0   14.98    1.02
   1  10   0   14.40    1.06
  -1  10   0   14.34    1.09
  -1  10   0   13.53    0.94
   1  10   0   14.23    0.85
   1  10   0   15.45    1.01
  -1  10   1   66.53    2.30
  -1  10   1   69.42    2.28
  -1 -10  -1   65.74    2.38
  -1  10   1   68.42    2.41
   1 -10   1   66.35    2.25
   1  10  -1   66.87    2.51
   1  10  -1   66.07    2.59
   1  10  -1   70.09    2.39
   1  10   1   67.55    2.51
   1  10   1   69.03    2.34
   1  10   1   69.53    2.51
  -1  10  -1   69.32    2.58
  -1  10  -1   65.62    2.64
   1 -10  -1   66.99    2.43
   1  10   1   69.29    2.39
  -1  10  -1   69.19    2.57
   1  10  -2   28.81    1.62
   1 -10   2   31.26    1.50
  -1  10   2   30.36    1.67
  -1 -10  -2   29.62    1.56
  -1 -10  -2   29.87    1.46
   1  10  -2   29.84    1.47
  -1 -10  -2   28.64    1.61
   1  10  -2   31.30    1.50
   1  10  -2   31.56    1.30
   1  10  -2   30.62    1.82
  -1 -10  -2   29.62    1.48
  -1  10   2   31.96    1.62
   1  10  -2   31.14    1.38
  -1 -10  -2   30.74    1.44
  -1  10  -2   28.24    1.62
   1 -10  -2   32.44    1.68
   1 -10  -2   31.15    1.44
  -1  10  -2   29.96    1.54
  -1  10  -2   31.59    1.34
  -1  10  -2   29.59    1.38
  -1  10  -2   30.90    1.72
   1  10   2   32.73    1.39
  -1  10  -2   30.66    1.52
   1 -10  -2   31.57    1.39
  -1 -10  -3   46.18    2.00
  -1 -10  -3   43.77    2.15
  -1 -10  -3   45.83    2.26
   1  10  -3   44.85    1.77
   1  10  -3   46.67    2.04
   1  10  -3   45.15    1.88
   1  10  -3   47.58    2.72
  -1 -10  -3   43.05    2.53
  -1 -10  -3   45.85    2.05
   1  10  -3   44.95    2.21
  -1  10  -3   41.96    2.26
  -1  10  -3   42.32    2.03
   1 -10  -3   45.57    1.91
  -1  10  -3   46.07    1.82
   1 -10  -3   43.86    1.94
  -1  10  -3   48.68    1.93
  -1  10  -3   46.05    2.35
   1 -10  -3   45.59    1.87
  -1 -10  -4    4.42    0.95
  -1 -10  -4    3.94    0.91
   1  10  -4    4.26    1.04
  -1 -10  -4    4.37    1.04
   1  10  -4    4.48    0.93
   1  10  -4    3.18    0.66
  -1 -10  -4    4.27    0.89
   1  10  -4    4.88    0.83
  -1  10  -4    4.63    1.14
  -1  10  -4    5.84    1.60
  -1  10  -4    3.76    0.74
  -1  10  -4    3.05    1.12
   1 -10  -4    3.27    1.11
   1 -10  -4    4.23    0.93
  -1  10  -4    4.25    0.82
  -1  10  -4    4.28    1.03
   1 -10  -4    3.92    0.83
  -1 -10  -5    8.14    1.46
  -1 -10  -5    8.41    1.17
   1  10  -5    8.58    1.01
  -1 -10  -5   10.00    1.38
   1  10  -5    9.76    1.48
   1  10  -5    7.30    1.50
   1  10  -5    8.45    1.01
  -1 -10  -5    7.72    1.27
   1 -10  -5   11.48    1.30
  -1  10  -5    9.55    1.89
  -1  10  -5   12.43    1.74
   1 -10  -5    7.89    1.22
  -1  10  -5    7.17    1.03
  -1  10  -5    7.74    1.09
  -1 -10  -6    7.33    1.11
   1  10  -6    6.86    0.91
   1  10  -6    8.24    1.12
   1  10  -6    7.18    0.97
  -1 -10  -6    8.46    1.18
   1 -10  -6    7.51    1.35
  -1  10  -6    8.55    1.05
   1 -10  -6   10.32    1.34
  -1  10  -6    8.46    0.99
  -1  10  -6    9.55    1.28
  -1 -10  -7   17.31    1.30
   1  10  -7   22.01    1.56
  -1  10  -7   17.57    1.51
   1 -10  -7   15.20    1.35
  -2 -10   0   54.84    1.97
   2  10   0   54.23    2.13
  -2  10   0   56.32    2.06
  -2 -10   0   54.03    1.95
  -2  10   0   56.68    2.06
   2  10   0   53.63    2.24
  -2  10   0   50.18    2.12
   2  10  -1   51.43    2.07
  -2 -10  -1   50.11    1.95
   2  10  -1   49.22    1.91
  -2 -10  -1   53.81    2.02
  -2  10   1   50.77    1.98
   2 -10   1   49.70    1.84
  -2  10   1   46.39    2.03
  -2  10  -1   51.44    2.12
   2 -10  -1   50.88    1.85
   2  10   1   51.81    2.15
   2  10   1   50.21    1.95
  -2  10  -1   51.80    2.08
   2 -10  -1   51.83    2.04
  -2  10  -1   54.70    2.21
   2  10   1   51.37    1.85
  -2 -10  -2   54.14    2.19
  -2 -10  -2   55.56    2.32
   2  10  -2   55.61    2.56
   2 -10   2   57.10    2.30
  -2  10   2   55.77    2.21
   2  10  -2   55.27    2.06
  -2  10   2   57.03    2.37
  -2 -10  -2   54.85    2.20
   2  10  -2   54.46    2.29
  -2 -10  -2   56.45    2.27
   2  10  -2   56.02    2.14
  -2 -10  -2   55.12    2.33
   2  10  -2   56.07    1.94
  -2  10  -2   55.20    2.24
  -2  10  -2   56.64    2.48
   2 -10  -2   51.28    2.26
  -2  10  -2   57.40    2.32
  -2  10  -2   54.74    2.20
   2  10   2   50.37    2.15
  -2  10  -2   57.37    2.05
  -2 -10   2   58.00    2.12
  -2  10  -2   55.94    2.36
   2 -10  -2   55.32    1.98
   2  10   2   55.39    2.29
   2 -10  -2   52.29    2.05
   2 -10   3    1.22    0.63
   2  10  -3    0.89    0.40
  -2 -10  -3   -0.08    0.58
   2  10  -3    1.41    0.58
   2 -10   3    0.95    0.41
   2  10  -3    1.52    0.66
  -2 -10  -3    0.83    0.50
  -2 -10  -3    0.63    0.94
   2  10  -3    0.91    0.53
  -2 -10  -3    1.02    0.53
  -2 -10   3    1.02    0.47
  -2  10  -3    1.28    0.68
  -2  10  -3    1.17    0.76
   2 -10  -3    0.38    0.56
   2 -10  -3    1.02    0.46
  -2  10  -3    0.23    0.87
  -2  10  -3   -0.19    0.36
  -2 -10  -4   12.92    1.49
  -2 -10  -4   17.39    2.39
   2  10  -4   14.45    1.61
   2  10  -4   13.46    1.19
   2  10  -4   13.56    1.04
  -2 -10  -4   16.99    1.94
   2  10  -4   12.49    1.48
  -2 -10  -4   13.96    1.37
  -2 -10  -4   15.64    1.30
  -2  10  -4   12.93    1.81
  -2  10  -4   12.76    1.18
   2 -10  -4   12.59    1.13
  -2  10  -4   11.52    2.29
   2 -10  -4   14.44    1.39
  -2  10  -4   14.87    1.40
  -2  10  -4   12.18    1.54
  -2  10  -4   13.30    1.09
   2  10  -5   15.27    1.24
   2  10  -5   17.87    1.98
  -2 -10  -5   16.51    1.98
  -2 -10  -5   17.57    1.58
   2  10  -5   14.55    1.67
  -2 -10  -5   12.01    1.56
  -2 -10  -5   13.07    2.09
  -2  10  -5   18.44    1.77
  -2  10  -5   13.93    2.00
  -2  10  -5   15.05    1.34
  -2  10  -5   16.98    1.98
  -2  10  -5   13.79    1.85
   2 -10  -5   16.42    1.62
   2  10  -6    1.74    0.98
  -2 -10  -6    1.20    0.73
  -2 -10  -6    0.44    1.19
   2  10  -6    1.49    0.61
   2  10  -6    1.43    0.67
   2 -10  -6    0.53    0.78
  -2  10  -6    1.58    0.64
  -2  10  -6    1.12    0.71
   2 -10  -6    2.14    0.99
  -2  10  -6    1.86    1.04
  -2 -10  -7    0.20    0.56
  -2  10  -7   -0.09    0.48
  -2  10  -7    1.26    0.73
  -3  10   0   16.55    1.18
   3  10   0   15.76    1.03
  -3  10   0   18.66    1.25
   3 -10   0   15.03    1.01
   3  10   0   15.76    0.96
  -3  10   0   13.80    1.22
  -3  10   0   16.40    1.10
   3 -10   0   16.15    0.95
  -3 -10   0   16.45    0.99
   3  10   0   15.83    1.22
  -3  10   0   15.49    1.21
  -3 -10   0   14.91    1.20
  -3  10   0   16.54    1.02
  -3 -10  -1    9.75    0.91
   3  10  -1    9.85    0.78
  -3  10   1    9.35    0.52
  -3  10   1   11.05    1.15
  -3  10   1   10.15    1.06
   3 -10   1    9.99    0.80
  -3  10   1    9.01    0.66
  -3  10   1   11.55    1.14
   3  10  -1    9.36    1.01
  -3 -10  -1    9.79    0.97
   3 -10   1   10.60    0.83
   3  10  -1    9.49    0.90
  -3  10  -1    9.69    1.04
   3 -10  -1    9.19    0.87
   3  10   1    7.14    0.97
  -3  10  -1    9.58    1.17
  -3  10  -1   11.49    1.13
  -3  10  -1    8.50    0.81
  -3 -10   1    8.97    1.31
  -3  10  -1   10.92    1.09
  -3  10  -1    9.66    1.04
   3 -10  -1   10.99    1.10
   3 -10  -1   10.38    0.79
  -3  10  -1   11.79    1.40
  -3 -10   1   10.45    0.92
  -3 -10  -2   27.57    1.60
   3  10  -2   27.50    1.23
   3  10  -2   25.70    1.34
   3  10  -2   24.82    1.83
  -3 -10  -2   27.13    1.48
  -3 -10  -2   27.07    1.51
  -3  10   2   24.19    1.38
   3 -10   2   25.94    1.58
  -3 -10  -2   28.40    1.84
   3  10  -2   27.73    1.55
  -3  10   2   29.42    1.64
  -3 -10  -2   30.33    2.29
  -3  10  -2   25.49    2.00
   3 -10  -2   25.31    1.36
   3 -10  -2   25.46    1.22
  -3  10  -2   28.01    1.53
  -3  10  -2   27.84    1.60
  -3  10  -2   26.37    1.57
  -3  10  -2   26.87    1.28
   3  10   2   27.80    1.54
   3 -10  -2   24.63    1.67
   3  10   2   24.84    1.43
  -3  10  -2   26.46    1.71
  -3  10  -2   28.31    1.34
  -3 -10   2   26.07    1.85
  -3  10  -2   26.07    1.46
   3  10  -3   -0.89    0.77
   3  10  -3   -0.04    0.54
  -3 -10  -3    0.68    0.65
  -3 -10  -3   -0.13    0.62
  -3 -10  -3    0.24    0.57
   3 -10   3   -0.36    0.52
  -3 -10  -3    0.75    0.69
   3  10  -3   -0.24    0.36
   3  10  -3   -0.03    0.45
   3  10  -3    0.09    0.57
  -3 -10  -3    0.23    0.58
  -3 -10   3    0.51    0.36
  -3  10  -3   -0.03    0.39
  -3  10  -3    0.40    0.79
  -3  10  -3   -0.22    0.71
  -3  10  -3    0.11    0.40
   3 -10  -3   -0.64    0.61
   3  10   3    0.13    0.43
  -3  10  -3   -0.67    0.64
   3 -10  -3    0.83    0.47
  -3  10  -3   -0.76    0.53
  -3 -10  -4   23.00    1.81
   3  10  -4   24.13    1.83
   3  10  -4   23.20    1.28
   3  10  -4   21.35    1.41
   3  10  -4   22.99    1.67
  -3 -10  -4   24.77    1.69
  -3 -10  -4   23.97    1.65
  -3 -10  -4   18.25    2.92
  -3 -10  -4   24.88    1.95
   3  10  -4   22.56    1.59
   3 -10  -4   22.43    1.39
   3 -10  -4   22.55    1.67
  -3  10  -4   23.70    1.76
  -3  10  -4   22.48    2.01
  -3  10  -4   24.94    1.51
  -3  10  -4   21.30    2.05
  -3  10  -4   22.94    1.44
  -3  10  -4   22.91    2.21
  -3 -10  -5    4.64    1.12
   3  10  -5    6.34    1.22
  -3 -10  -5    6.39    1.45
   3  10  -5    2.89    1.18
   3  10  -5    5.50    0.81
   3  10  -5    6.84    1.49
  -3 -10  -5    4.00    0.97
  -3 -10  -5    4.93    1.27
  -3 -10  -5    8.37    2.86
   3  10  -5    4.05    0.93
  -3  10  -5    4.91    1.60
  -3  10  -5    4.90    1.63
   3 -10  -5    4.79    1.18
  -3  10  -5    4.93    0.94
   3 -10  -5    5.30    1.07
  -3  10  -5    4.02    0.81
  -3  10  -5    4.73    1.11
  -3  10  -5    5.22    2.65
  -3 -10  -6    0.46    0.72
   3  10  -6    1.04    0.67
   3  10  -6    0.27    0.61
  -3 -10  -6    1.40    0.83
  -3  10  -6    1.18    0.61
   3 -10  -6    1.20    1.06
  -3  10  -6    1.97    0.73
  -3  10  -6    0.73    0.69
  -3  10  -6    1.19    1.34
   3 -10  -6    0.76    0.81
  -3 -10  -7    9.31    1.25
  -3  10  -7   10.05    0.98
  -3  10  -7    9.98    1.13
   4  10   0  157.05    4.62
  -4  10   0  155.61    4.73
   4 -10   0  153.91    4.66
  -4  10   0  155.42    4.92
  -4 -10   0  153.12    4.92
  -4  10   0  153.38    4.91
   4  10   0  151.04    5.07
  -4  10   0  159.74    4.91
   4 -10   0  153.48    4.61
  -4 -10   0  167.67    4.87
   4  10   0  155.88    4.75
  -4  10   1   33.72    1.71
  -4  10   1   34.50    1.71
  -4 -10  -1   35.28    1.92
   4 -10   1   34.51    1.52
   4 -10   1   34.49    1.56
  -4 -10  -1   36.95    1.65
   4  10  -1   36.52    1.63
   4  10  -1   36.21    1.50
  -4  10   1   37.46    1.81
  -4 -10  -1   31.54    1.79
   4  10  -1   35.00    2.07
   4 -10  -1   37.59    2.02
  -4  10  -1   32.28    1.73
  -4  10  -1   34.19    1.93
   4  10   1   36.49    1.54
  -4 -10   1   36.76    1.70
  -4  10  -1   36.46    1.74
   4 -10  -1   34.51    1.55
  -4  10  -1   32.64    1.41
  -4  10  -1   33.74    1.49
  -4  10  -1   35.54    1.65
  -4  10  -1   34.08    1.88
   4  10   1   38.45    2.13
  -4  10  -1   36.48    1.83
   4  10   1   34.02    1.65
  -4 -10  -2   20.48    1.35
   4  10  -2   20.47    1.22
   4 -10   2   20.02    1.51
  -4 -10  -2   21.42    1.33
   4 -10   2   20.91    1.84
   4  10  -2   20.81    1.33
  -4 -10  -2   22.84    1.81
   4 -10   2   18.64    1.20
   4  10  -2   20.05    1.21
  -4 -10  -2   19.66    1.38
   4  10  -2   22.66    1.13
  -4 -10  -2   19.78    1.45
  -4  10   2   20.81    1.20
  -4  10   2   19.47    1.54
  -4 -10  -2   22.10    1.35
   4  10   2   18.45    1.39
  -4  10  -2   22.53    1.37
  -4  10  -2   20.10    1.13
  -4  10  -2   23.22    1.72
   4 -10  -2   20.42    1.23
   4 -10  -2   20.30    1.12
  -4  10  -2   19.93    1.79
  -4  10  -2   19.66    1.17
   4  10   2   21.68    1.47
  -4  10  -2   20.04    1.43
  -4  10  -2   17.41    1.51
  -4 -10   2   19.90    1.19
   4  10   2   18.82    1.29
  -4  10  -2   21.62    1.42
  -4 -10  -3   10.67    1.37
  -4 -10  -3   10.88    1.28
   4  10  -3   12.94    1.07
   4  10  -3   12.30    1.17
  -4 -10  -3   11.08    1.94
  -4 -10  -3   13.28    1.45
  -4 -10  -3   11.46    1.24
   4  10  -3   12.77    1.34
   4  10  -3   11.94    0.89
  -4  10  -3   11.11    1.52
  -4  10  -3   13.50    1.59
  -4  10  -3   11.02    1.42
   4 -10  -3   12.25    0.91
  -4  10  -3   13.66    1.54
  -4  10  -3   13.06    1.07
   4 -10  -3   11.70    1.17
  -4  10  -3    8.62    1.32
   4  10   3   12.00    1.07
  -4  10  -3   12.20    2.00
  -4 -10  -4    4.73    1.21
   4  10  -4    2.70    0.79
  -4 -10  -4    2.30    1.04
  -4 -10  -4    3.03    0.83
  -4 -10  -4    3.09    0.88
   4  10  -4    2.74    0.64
   4 -10  -4    1.55    0.66
  -4  10  -4    2.50    0.74
  -4  10  -4    2.04    0.85
  -4  10  -4    1.84    0.61
  -4  10  -4    2.40    1.19
   4 -10  -4    3.97    0.99
  -4  10  -4    1.09    1.13
   4  10  -5    1.62    0.63
   4  10  -5    2.06    0.98
  -4 -10  -5    1.61    0.84
  -4 -10  -5    1.04    0.76
   4  10  -5    1.43    0.78
  -4 -10  -5    0.34    1.22
  -4 -10  -5    1.23    1.26
   4  10  -5    2.10    1.44
  -4 -10  -5    1.93    1.46
  -4  10  -5    0.86    0.87
  -4  10  -5    4.24    1.78
   4 -10  -5    0.22    1.04
  -4  10  -5    2.18    2.67
  -4  10  -5    0.11    0.55
  -4  10  -5    1.39    1.69
   4 -10  -5    0.35    0.72
  -4  10  -5    1.15    0.73
  -4 -10  -6   10.27    1.16
   4  10  -6   11.21    1.06
  -4 -10  -6    8.64    1.23
   4  10  -6   11.36    1.65
  -4  10  -6    6.09    0.95
   4 -10  -6    8.70    1.13
  -4  10  -6    9.18    1.68
  -4  10  -6    8.82    0.94
  -4  10  -6   10.56    1.14
   4 -10  -6   11.06    1.51
  -5 -10   0   13.65    0.91
   5 -10   0   14.65    1.07
  -5  10   0   13.32    1.20
  -5  10   0   14.26    1.13
   5  10   0   15.40    1.10
  -5  10   0   12.99    1.20
  -5  10   0   19.72    2.22
  -5 -10   0   14.90    1.37
   5  10   0   15.94    1.05
  -5  10   0   12.35    1.20
   5 -10   0   12.91    0.94
   5  10   0   14.47    1.35
   5  10  -1    4.57    0.75
  -5  10   1    4.76    0.92
   5 -10   1    4.33    0.70
   5  10  -1    4.21    0.66
  -5  10   1    4.85    0.79
  -5 -10  -1    3.61    0.72
   5 -10   1    2.79    0.62
   5  10  -1    6.16    1.24
  -5 -10  -1    4.34    0.73
  -5 -10  -1    5.02    1.12
  -5  10   1    5.27    0.94
  -5 -10  -1    6.15    0.82
   5  10   1    4.17    0.69
  -5  10  -1    4.54    0.81
   5  10   1    4.17    0.94
   5 -10  -1    4.32    0.66
  -5 -10   1    4.46    0.88
   5 -10  -1    4.02    0.69
  -5  10  -1    4.06    1.02
  -5  10  -1    5.92    1.11
  -5  10  -1    4.30    0.91
  -5  10  -1    2.00    0.89
  -5  10  -1    5.07    0.81
   5  10   1    3.61    0.78
   5 -10   2    6.42    0.77
   5  10  -2    7.01    0.78
  -5  10   2    7.32    1.17
   5  10  -2    7.78    0.90
  -5 -10  -2    7.07    0.94
   5 -10   2    7.62    0.89
  -5 -10  -2    7.29    1.06
  -5 -10  -2    7.39    0.90
  -5 -10  -2    6.35    1.07
  -5 -10  -2    7.44    1.43
   5  10  -2    7.80    0.99
  -5  10   2    8.61    0.81
   5 -10   2    6.29    1.16
  -5 -10  -2    4.86    0.84
   5 -10  -2    7.41    0.91
  -5  10  -2    7.43    1.17
   5  10   2    5.79    0.97
  -5  10  -2    8.28    1.23
  -5 -10   2    7.30    0.78
  -5  10  -2    4.68    1.23
  -5  10  -2    7.11    0.82
   5  10   2    5.89    1.07
  -5  10  -2    6.31    1.01
  -5  10  -2    7.14    0.86
   5 -10  -2    6.54    0.72
  -5 -10  -3   12.93    2.00
  -5 -10  -3   15.20    1.73
  -5 -10  -3    9.48    1.32
   5  10  -3   11.38    1.13
  -5 -10  -3   12.47    1.19
  -5 -10  -3   12.13    1.26
   5 -10   3   11.75    1.39
   5  10  -3   10.23    1.28
   5  10  -3   10.50    0.94
   5  10  -3   13.27    1.23
   5  10   3   10.72    1.17
  -5  10  -3   12.66    1.30
  -5  10  -3   11.10    1.35
  -5  10  -3   10.57    1.68
  -5  10  -3   10.16    1.63
  -5  10  -3   12.15    1.54
  -5  10  -3   11.40    1.06
   5 -10  -3   14.69    1.70
   5 -10  -3   11.95    0.97
  -5  10  -3   12.82    2.04
  -5  10  -3    9.41    1.31
  -5 -10  -4    5.60    1.09
   5  10  -4    6.32    1.17
  -5 -10  -4    3.88    1.19
  -5 -10  -4    7.62    1.62
  -5 -10  -4    4.91    1.38
   5  10  -4    4.54    0.90
  -5 -10  -4    4.25    0.92
   5  10  -4    5.07    0.90
   5  10  -4    4.81    0.78
  -5  10  -4    5.45    1.45
  -5  10  -4    5.83    1.10
   5 -10  -4    4.77    1.07
  -5  10  -4    3.70    1.53
   5 -10  -4    5.34    0.86
  -5  10  -4    4.51    0.83
  -5  10  -4    5.34    1.09
  -5  10  -4    5.36    2.07
  -5  10  -4    6.56    1.07
  -5  10  -4    4.89    1.58
  -5 -10  -5    1.34    1.37
   5  10  -5    0.75    0.59
  -5 -10  -5    0.53    0.70
  -5 -10  -5    0.56    0.81
  -5  10  -5    1.49    0.69
  -5  10  -5    1.51    0.88
   5 -10  -5    1.57    0.79
  -5  10  -5    2.03    0.80
  -5  10  -5    2.44    1.42
  -5  10  -5    0.89    0.73
   5  10  -6    3.04    0.84
  -5 -10  -6    5.08    0.92
  -5 -10  -6    2.44    0.97
  -5  10  -6    4.08    0.79
  -5  10  -6    4.75    1.02
  -5  10  -6    3.09    1.19
  -5  10  -6    1.88    0.72
   6  10   0    0.69    0.53
   6  10   0    0.49    0.45
  -6  10   0    0.79    0.63
   6 -10   0    0.52    0.46
  -6  10   0    0.57    0.58
   6 -10   0   -0.73    0.49
  -6 -10   0   -0.20    0.65
  -6 -10   0   -0.69    0.34
  -6  10   0    0.17    0.63
  -6  10   0   -0.01    0.28
  -6 -10  -1   41.47    1.80
  -6  10   1   36.32    2.07
   6 -10   1   37.20    1.75
   6  10  -1   36.62    1.68
   6 -10   1   38.18    1.77
   6  10  -1   40.13    2.49
  -6  10   1   38.24    1.93
   6  10  -1   39.37    1.87
   6  10   1   37.75    1.74
  -6  10  -1   38.79    2.02
   6  10   1   37.97    2.24
   6  10   1   35.65    2.28
  -6 -10   1   38.10    1.88
  -6  10  -1   40.87    1.84
  -6  10  -1   37.77    1.83
   6 -10  -1   35.09    1.74
   6 -10  -1   38.39    1.68
  -6  10  -1   36.84    2.38
  -6 -10  -2    8.50    1.00
  -6 -10  -2    6.36    0.98
  -6 -10  -2    8.97    1.04
  -6  10   2    9.39    1.29
   6 -10   2   10.41    1.49
  -6 -10  -2    7.54    1.21
  -6 -10  -2    6.00    1.43
   6  10  -2    7.79    0.96
  -6 -10  -2    6.89    1.37
   6 -10   2    7.80    0.93
   6 -10   2    8.51    1.07
  -6  10  -2    8.70    1.45
  -6  10  -2    8.32    1.19
   6  10   2    6.90    0.90
   6  10   2    7.14    1.20
  -6  10  -2    6.55    0.97
  -6 -10   2    8.61    0.82
  -6  10  -2   10.69    1.66
  -6  10  -2    9.22    1.63
   6 -10  -2    7.78    0.86
  -6  10  -2    7.22    0.96
   6  10   2    7.61    1.27
  -6  10  -2    7.87    0.90
  -6 -10  -3    5.28    0.92
   6  10  -3    4.72    1.01
  -6 -10  -3    5.31    0.93
  -6 -10  -3    4.25    1.22
  -6 -10  -3    6.84    1.14
   6 -10   3    5.04    1.16
   6  10  -3    5.03    0.76
  -6 -10  -3    5.69    1.64
  -6 -10  -3    5.20    1.29
   6  10  -3    4.95    0.85
  -6  10  -3    7.06    1.06
  -6  10  -3    3.47    0.74
  -6  10  -3    5.13    1.10
   6  10   3    4.85    0.98
  -6  10  -3    5.14    1.09
  -6  10  -3    6.98    1.50
  -6  10  -3    5.52    0.94
   6 -10  -3    5.53    0.81
  -6  10  -3    6.58    1.63
  -6  10  -3    5.94    1.60
   6 -10  -3    4.25    0.87
   6  10  -4    4.15    1.17
  -6 -10  -4    1.40    1.50
   6  10  -4    5.58    0.99
  -6 -10  -4    4.98    1.91
  -6 -10  -4    4.32    1.00
   6  10  -4    4.45    0.74
  -6 -10  -4    4.14    1.60
  -6 -10  -4    5.39    1.29
  -6 -10  -4    4.83    0.95
  -6  10  -4    2.82    1.40
   6 -10  -4    5.58    1.13
  -6  10  -4    3.60    0.99
  -6  10  -4    4.36    0.98
  -6  10  -4    6.05    2.05
  -6  10  -4    4.96    1.94
  -6  10  -4    5.94    2.11
   6 -10  -4    5.61    0.85
  -6  10  -4    4.96    0.85
  -6  10  -4    4.30    1.00
   6  10  -5   14.54    1.16
  -6 -10  -5   17.05    1.62
  -6 -10  -5   16.17    1.80
  -6  10  -5   15.47    1.35
  -6  10  -5   12.78    2.04
  -6  10  -5   15.19    1.45
  -6  10  -5   14.24    1.95
  -6  10  -5   13.46    1.70
  -6 -10  -6    3.23    0.94
  -6 -10  -6    4.02    0.77
  -6  10  -6    1.69    0.69
  -6  10  -6    3.72    0.71
  -6  10  -6    1.50    0.74
   7 -10   0   25.09    1.59
  -7  10   0   24.66    1.66
   7  10   0   21.23    1.52
   7 -10   0   23.68    1.45
  -7  10   0   23.31    1.55
   7  10   0   20.50    2.10
   7  10   0   20.63    1.50
  -7  10   0   22.36    1.54
  -7 -10   0   20.25    1.55
   7 -10   1   10.04    1.59
  -7 -10  -1    6.11    1.24
  -7  10   1    7.47    1.21
   7 -10   1    6.51    0.94
  -7  10   1    6.16    1.10
   7  10  -1    7.10    0.99
   7  10  -1    6.01    0.82
   7 -10   1    7.53    0.96
  -7 -10  -1    5.77    0.80
  -7  10   1    6.30    0.91
   7  10   1    5.96    1.28
   7 -10  -1    5.51    0.77
  -7  10  -1    6.60    1.09
  -7  10  -1    7.99    1.03
  -7  10  -1    6.94    1.21
   7  10   1    6.65    1.12
  -7 -10   1    7.02    1.17
   7 -10  -1    6.02    0.98
   7  10  -2   19.71    1.26
   7  10  -2   20.57    1.45
  -7 -10  -2   17.96    1.71
  -7 -10  -2   19.32    1.81
   7 -10   2   18.89    1.30
   7  10   2   19.08    1.43
   7 -10  -2   18.80    1.25
  -7  10  -2   11.71    2.06
  -7  10  -2   21.90    1.66
   7 -10  -2   19.87    1.40
   7  10   2   17.21    1.76
  -7  10  -2   20.29    1.46
  -7  10  -2   19.77    1.85
   7 -10   3   10.89    1.51
  -7 -10  -3   11.71    1.34
  -7 -10  -3   14.58    1.62
   7  10  -3   14.24    1.26
  -7 -10  -3   13.91    1.33
   7  10  -3   12.49    1.45
  -7 -10  -3   11.72    1.92
   7  10  -3   12.80    1.06
   7 -10  -3   13.27    1.11
  -7  10  -3   15.69    3.75
   7  10   3   11.35    1.45
  -7  10  -3   15.42    2.34
  -7  10  -3   11.78    1.42
  -7  10  -3   12.57    1.53
  -7  10  -3   15.62    1.69
   7 -10  -3   13.57    1.34
  -7  10  -3   14.62    1.98
  -7  10  -3   11.63    1.15
  -7 -10  -4    1.94    1.93
  -7 -10  -4    3.86    1.25
   7  10  -4    3.49    0.75
  -7 -10  -4    1.78    1.65
  -7 -10  -4    3.01    1.07
   7  10  -4    5.78    1.38
   7  10  -4    3.43    0.93
  -7 -10  -4    4.28    0.91
  -7  10  -4    1.58    2.33
  -7  10  -4    4.34    1.57
   7 -10  -4    3.20    0.77
  -7  10  -4    3.27    0.90
  -7  10  -4    3.24    0.84
  -7  10  -4    4.53    1.21
  -7  10  -4    4.16    1.05
  -7  10  -4    6.13    1.19
   7 -10  -4    4.91    1.07
   7  10  -5    1.07    0.74
  -7 -10  -5    1.89    0.97
  -7 -10  -5    2.87    1.14
  -7 -10  -5    1.08    1.13
  -7 -10  -5    1.13    0.77
  -7  10  -5    2.30    0.90
  -7  10  -5   -1.28    1.20
  -7  10  -5    1.30    0.69
   7 -10  -5    2.40    0.94
  -7  10  -5    1.32    3.61
  -7  10  -5    0.61    0.70
  -7 -10  -6    1.84    0.78
  -7  10  -6   -0.07    0.70
  -7  10  -6    0.46    0.57
   8  10   0   15.54    1.26
  -8  10   0   15.28    1.67
   8 -10   0   13.21    1.17
  -8 -10   0   14.77    1.41
   8  10   0   13.04    1.92
   8 -10   0   14.23    1.22
   8  10   0   15.56    1.60
  -8  10   0   14.14    1.37
   8  10  -1    1.04    1.77
  -8  10   1    2.01    0.84
   8 -10   1    1.15    1.06
   8 -10   1    0.46    0.61
  -8 -10  -1    0.91    0.80
  -8  10   1    1.77    0.71
  -8  10   1   -0.45    1.53
   8  10  -1    1.34    0.90
   8  10  -1    0.63    0.56
  -8 -10  -1    1.07    0.60
   8 -10   1    0.80    0.64
  -8  10  -1    1.29    0.51
  -8 -10   1    1.28    0.64
  -8  10  -1    2.68    0.79
  -8  10  -1    1.14    0.92
   8  10   1    0.70    0.64
   8  10   1    0.71    1.25
   8 -10  -1    1.31    0.68
   8 -10  -1    1.23    0.62
   8  10   1    0.21    0.85
  -8  10  -1    1.44    0.86
   8  10  -2   17.06    1.46
  -8 -10  -2   19.66    1.47
   8 -10   2   19.78    1.55
   8 -10   2   17.81    1.36
   8 -10   2   19.51    2.12
  -8 -10  -2   20.32    1.92
   8  10  -2   18.79    1.33
   8  10   2   17.85    1.91
  -8  10  -2   19.11    2.06
  -8  10  -2   21.04    1.51
   8 -10  -2   18.89    1.44
  -8  10  -2   19.99    1.88
  -8  10  -2   18.51    1.45
   8 -10  -2   16.69    1.26
   8  10   2   18.10    1.55
  -8 -10  -3   10.21    1.46
   8  10  -3   12.42    1.30
  -8 -10  -3   12.10    2.21
  -8 -10  -3   10.47    1.74
   8  10  -3   10.40    1.41
  -8  10  -3   13.29    1.81
   8 -10  -3   11.01    1.22
  -8  10  -3    9.93    1.40
  -8  10  -3   13.51    1.40
   8  10  -4   10.00    1.08
  -8 -10  -4    8.94    1.38
  -8 -10  -4   12.04    2.94
  -8 -10  -4    9.32    1.27
   8 -10  -4    8.26    0.95
  -8  10  -4    8.30    1.40
  -8  10  -4    9.08    1.38
   8 -10  -4   10.21    1.32
  -8  10  -4    6.69    2.03
  -8  10  -4    8.66    1.25
  -8 -10  -5    2.57    1.15
  -8 -10  -5    1.05    1.94
   8  10  -5    1.99    0.84
  -8  10  -5    2.21    0.79
  -8  10  -5    5.23    1.94
  -8  10  -5    1.24    0.74
   9 -10   0    1.43    1.41
   9  10   0   -0.29    0.81
   9 -10   0    0.00    0.59
   9  10   0    0.53    1.33
   9 -10   0    0.17    0.76
   9  10   0    0.21    0.63
   9 -10   1   11.38    1.25
   9  10  -1    6.31    0.97
  -9  10   1    8.32    1.32
   9 -10   1   10.02    1.24
  -9 -10  -1    6.75    1.27
   9  10  -1    8.20    1.35
   9 -10   1    6.10    1.62
  -9  10  -1    9.40    1.25
   9  10   1    7.61    1.61
  -9  10  -1    8.64    1.40
  -9  10  -1    7.39    1.30
   9 -10  -1    8.91    1.12
   9 -10  -1    6.40    0.98
   9  10   1    6.95    1.32
  -9 -10   1    8.09    1.10
   9  10   1    9.73    1.20
   9 -10   2   13.79    1.92
   9 -10   2   13.63    1.29
   9  10  -2   12.37    1.43
   9 -10   2   17.43    1.61
  -9 -10  -2   14.77    1.90
   9  10  -2   13.60    1.25
  -9 -10  -2   16.96    1.33
  -9  10  -2   12.77    1.46
  -9  10  -2   12.04    1.62
   9  10   2   14.38    1.38
  -9  10  -2   14.74    1.26
   9  10   2   10.62    1.67
   9 -10  -2   15.41    1.42
  -9  10  -2   16.88    1.64
   9 -10  -2   14.12    1.27
  -9 -10  -3    6.26    1.46
  -9 -10  -3    4.31    0.99
   9  10  -3    7.51    2.35
  -9 -10  -3    6.80    1.39
   9  10  -3    6.22    0.90
   9  10  -3    6.67    1.10
   9 -10   3    4.50    1.40
  -9  10  -3    7.96    1.52
  -9  10  -3    7.57    1.08
  -9  10  -3    5.93    1.08
   9 -10  -3    6.64    0.97
   9 -10  -3    6.84    1.11
  -9  10  -3    6.69    1.27
   9  10   3    5.84    1.25
  -9 -10  -4    2.22    1.00
  -9 -10  -4    0.99    1.05
   9  10  -4    1.74    0.72
  -9 -10  -4   -0.33    1.30
  -9  10  -4    1.31    1.15
  -9  10  -4    0.74    1.18
  -9  10  -4    1.28    0.75
   9 -10  -4    0.00    0.70
   9 -10  -4    1.04    1.04
  -9  10  -4    0.05    0.75
  -9 -10  -5    2.22    1.85
  -9 -10  -5   -0.33    1.16
  -9  10  -5   -0.50    0.68
  -9  10  -5    0.25    1.74
  -9  10  -5    1.18    0.73
  10 -10   0    5.57    0.97
  10  10   0    7.34    1.54
 -10  10   0    5.54    1.22
 -10  10   0    6.32    1.04
  10 -10   0    4.31    1.08
  10  10   0    5.04    1.13
  10  10   0    8.47    3.40
  10 -10   1   24.79    1.62
  10  10  -1   26.04    2.03
 -10 -10  -1   22.55    1.88
  10 -10   1   20.13    2.52
  10  10  -1   26.56    2.22
  10 -10   1   20.02    2.14
  10  10   1   24.68    2.23
  10 -10  -1   25.35    1.67
  10  10   1   22.93    2.39
 -10  10  -1   22.67    1.83
 -10  10  -1   23.74    1.85
  10  10   1   22.03    2.48
  10 -10   2   17.78    1.48
  10 -10   2   18.34    1.84
  10  10  -2   17.80    1.37
  10 -10   2   20.41    2.44
 -10 -10  -2   13.91    1.68
  10  10  -2   13.80    1.50
 -10  10  -2   18.58    1.69
 -10  10  -2   19.15    1.88
  10  10   2   18.69    1.64
  10 -10  -2   18.73    1.40
  10 -10  -2   18.05    1.50
  10  10   2   15.98    2.11
  10 -10   3    1.33    1.23
  10  10  -3    1.67    0.70
 -10 -10  -3    1.80    1.75
 -10 -10  -3    1.98    1.42
  10 -10  -3    1.99    0.91
 -10  10  -3    0.31    1.04
 -10  10  -3    2.19    0.99
  10  10   3    2.36    1.12
  10 -10  -3    1.47    0.76
 -10 -10  -4    2.95    1.35
  10  10  -4    2.08    0.99
  10 -10  -4    2.14    1.03
 -10  10  -4    2.30    1.18
 -10  10  -4    1.99    0.79
  10 -10  -4   -1.05    1.19
 -10  10  -5    1.59    0.81
  11  10   0   14.25    2.75
 -11 -10   0   16.36    1.32
  11 -10   0   17.15    1.43
  11 -10   0   15.91    2.89
 -11  10   0   15.57    1.26
  11 -10   0   16.02    1.47
 -11  10   0   17.10    1.79
  11 -10   1    4.20    0.89
  11 -10   1    6.42    1.83
  11 -10   1    4.75    1.16
  11  10  -1    4.14    0.87
 -11 -10  -1    3.92    0.98
  11 -10  -1    4.96    0.89
 -11  10  -1    7.59    1.22
  11 -10  -1    4.65    0.98
  11  10   1    6.02    1.22
  11  10   1    3.58    1.56
 -11  10  -1    4.55    1.12
  11 -10   2   15.63    2.09
  11 -10   2   14.93    1.44
  11  10  -2   15.48    1.31
  11  10   2   14.68    1.99
  11  10   2   13.76    1.34
 -11  10  -2   18.86    2.55
  11 -10  -2   19.87    1.48
  11 -10  -2   16.17    1.44
 -11 -10  -3   -0.84    0.95
  11  10  -3    0.49    0.63
 -11  10  -3   -0.49    1.01
  11 -10  -3   -0.47    0.69
  11 -10  -3    0.14    0.78
 -11  10  -3   -0.49    0.57
 -11 -10  -4    0.23    0.95
 -11  10  -4    1.80    1.03
  12 -10   0    7.67    1.20
  12 -10   0    5.89    0.98
  12  10   0    4.81    0.97
  12 -10   1    5.77    0.93
 -12 -10  -1    6.36    0.99
  12 -10   1    5.48    1.23
  12  10  -1    4.74    0.93
  12  10   1    4.19    1.18
  12 -10  -1    5.23    0.87
  12  10   1    2.23    0.87
 -12  10  -1    6.65    1.01
  12 -10  -1    4.57    0.97
 -12  10  -1    5.36    1.16
  12  10  -2    0.61    0.75
 -12 -10  -2    1.02    0.87
  12 -10  -2    0.65    0.66
  12 -10  -2    1.11    0.74
 -12  10  -2    0.05    0.84
 -12  10  -2    0.34    0.76
 -12 -10  -3    0.78    0.88
 -12  10  -3    0.30    0.65
 -12  10  -3   -0.14    0.77
  12 -10  -3    0.07    0.65
  13  10   0    2.06    0.91
  13  10   0   -0.06    0.64
  13 -10   0    0.27    0.62
  13 -10   0   -0.19    0.92
  13 -10   1    0.39    0.66
  13  10  -1    2.00    0.83
  13 -10  -1   -0.21    0.91
  13 -10  -1    0.18    0.70
  13  10   1    0.84    0.78
 -13 -10  -2    0.11    0.71
 -13  10  -2    1.25    1.02
 -13  10  -2    1.46    0.76
  13 -10  -2    0.40    0.60
  14  10   0    3.33    0.98
  14 -10   0    3.78    0.74
  14  10  -1   -0.50    0.46
  14 -10  -1    0.28    0.53
   0  11   0    0.07    0.65
   0 -11   0   -0.05    0.45
   0 -11   0    0.00    0.39
   0  11   0   -0.20    0.37
   0  11   0   -0.06    0.51
   0  11   0   -0.12    0.47
   0 -11  -1   54.23    1.99
   0  11  -1   56.53    1.92
   0  11  -1   56.91    2.27
   0 -11  -1   55.23    2.03
   0  11  -1   52.14    2.04
   0  11   1   50.97    2.36
   0 -11  -1   55.33    2.11
   0  11  -1   51.53    2.26
   0  11   1   56.48    2.20
   0  11   1   52.63    2.07
   0  11   1   48.22    2.13
   0  11  -1   53.64    2.12
   0  11   2  111.47    3.24
   0 -11  -2  106.87    3.58
   0  11  -2  114.79    3.74
   0  11   2  108.93    3.76
   0  11   2  119.97    3.87
   0  11  -2  113.07    3.91
   0  11   2  108.28    3.83
   0  11  -2  108.15    3.63
   0 -11  -2  110.83    3.77
   0  11  -2  113.77    3.44
   0 -11  -2  113.94    3.58
   0  11  -2  112.14    3.52
   0  11  -2  110.87    3.94
   0  11  -3    2.74    1.16
   0 -11  -3    2.63    0.62
   0 -11  -3    1.89    0.56
   0 -11  -3    2.16    0.66
   0  11  -3    2.15    0.55
   0 -11  -3    1.37    0.89
   0  11  -3    1.54    0.56
   0  11  -3    1.61    0.83
   0  11  -3    2.17    0.71
   0  11  -4   31.83    1.62
   0 -11  -4   35.09    1.96
   0  11  -4   39.24    3.48
   0 -11  -4   33.57    1.87
   0  11  -4   32.46    2.91
   0 -11  -4   31.63    2.11
   0  11  -4   35.23    1.75
   0 -11  -5    5.18    1.25
   0  11  -5    6.72    1.43
   0  11  -5    5.71    1.48
   0  11  -5    6.28    1.08
   0 -11  -5    5.77    1.14
   0  11  -5    5.48    0.93
   0  11  -6    3.99    1.03
   0  11  -6    4.42    0.95
   0 -11  -6    3.74    1.08
   0  11  -6    4.25    0.78
   0 -11  -6    5.66    1.06
   0 -11  -7   -0.98    0.76
   0  11  -7    0.93    0.76
  -1  11   0   21.40    1.06
   1  11   0   22.31    1.23
  -1  11   0   21.96    1.26
  -1 -11   0   21.56    1.19
   1  11   0   20.71    1.38
  -1  11   0   18.85    1.34
  -1 -11   0   20.14    1.13
  -1  11   0   22.91    1.29
  -1  11   0   21.10    1.24
   1  11   0   24.39    1.43
  -1 -11  -1  160.28    4.71
  -1  11   1  158.01    5.01
  -1 -11  -1  160.97    4.69
  -1  11   1  149.83    4.80
  -1  11   1  159.60    4.62
   1  11  -1  158.23    4.92
   1  11  -1  156.85    5.00
  -1  11   1  154.03    4.65
  -1  11   1  158.49    4.79
  -1 -11  -1  154.82    4.75
   1 -11  -1  153.04    4.75
   1  11   1  151.23    5.06
   1  11   1  168.84    4.88
  -1  11  -1  156.88    4.90
  -1  11  -1  152.48    4.56
   1  11   1  155.32    4.87
  -1  11  -1  160.06    4.95
   1 -11  -1  156.31    4.63
   1  11   1  154.18    4.47
  -1  11  -1  157.21    4.69
  -1  11  -1  151.94    4.91
  -1  11  -1  158.08    4.78
   1  11   1  155.44    4.69
   1  11   1  157.84    4.82
  -1  11   2   17.08    1.30
   1  11  -2   18.38    1.19
   1  11  -2   15.83    1.25
  -1 -11  -2   16.06    1.13
  -1 -11  -2   17.96    1.13
   1  11  -2   18.52    1.09
   1 -11   2   16.48    1.13
   1  11  -2   17.55    1.18
  -1 -11  -2   18.10    1.22
   1  11  -2   15.31    1.38
  -1  11   2   17.87    1.33
   1  11  -2   17.17    0.98
  -1  11  -2   16.95    1.36
   1  11   2   15.31    1.32
   1 -11  -2   19.30    1.08
  -1  11  -2   18.15    1.24
   1 -11  -2   17.31    1.12
   1  11   2   18.35    1.38
  -1  11  -2   19.08    1.30
  -1 -11   2   15.69    0.53
  -1  11  -2   17.44    1.06
   1  11   2   16.97    1.34
  -1  11  -2   16.58    1.38
   1 -11  -2   16.51    1.23
  -1  11  -2   19.12    1.03
   1  11  -3   45.16    2.07
  -1 -11  -3   44.20    2.00
   1  11  -3   42.03    2.68
   1  11  -3   47.37    2.30
  -1 -11  -3   45.07    2.08
   1  11  -3   44.07    1.79
   1  11  -3   44.28    2.09
   1  11  -3   44.64    1.88
  -1 -11  -3   43.98    2.27
  -1 -11  -3   45.91    2.26
  -1 -11  -3   43.69    2.22
  -1  11  -3   41.13    2.08
  -1  11  -3   45.72    1.92
   1 -11  -3   45.66    1.92
  -1  11  -3   46.34    2.78
  -1  11  -3   44.62    2.39
  -1  11  -3   44.04    1.81
   1 -11  -3   45.46    1.99
  -1  11  -3   42.47    2.15
   1  11  -4    6.08    0.84
   1  11  -4    6.12    0.87
   1  11  -4    4.62    1.15
  -1 -11  -4    5.80    1.13
  -1 -11  -4    5.36    0.98
  -1 -11  -4    5.34    1.02
  -1 -11  -4    4.79    1.51
  -1 -11  -4    6.22    1.19
   1  11  -4    7.41    1.21
  -1  11  -4    5.17    1.26
  -1  11  -4    4.14    0.78
  -1  11  -4    5.10    1.69
  -1  11  -4    5.34    1.25
   1 -11  -4    5.61    1.01
  -1  11  -4    5.22    0.81
   1 -11  -4    4.78    0.90
   1  11  -5   11.62    1.35
   1  11  -5   10.08    1.12
  -1 -11  -5    9.71    1.32
   1  11  -5   10.86    1.75
  -1 -11  -5   10.93    1.48
   1  11  -5    8.99    1.44
  -1  11  -5   12.36    1.20
  -1  11  -5   12.23    1.73
   1 -11  -5   13.00    1.48
  -1  11  -5   11.16    2.02
  -1  11  -5   14.11    1.95
  -1 -11  -6    4.92    1.01
   1  11  -6    5.16    1.14
  -1 -11  -6    5.54    1.13
   1  11  -6    4.68    0.83
   1  11  -6    4.71    0.88
  -1  11  -6    4.50    0.98
   1 -11  -6    4.55    1.07
  -1  11  -6    4.60    0.90
  -1  11  -6    4.14    0.80
   1 -11  -6    4.59    0.94
   1  11  -7    1.97    0.61
  -1 -11  -7    5.16    1.21
   1 -11  -7    2.51    1.39
  -1  11  -7    3.31    0.69
  -2 -11   0   99.73    3.20
   2  11   0  106.51    3.48
   2  11   0  103.69    3.27
  -2  11   0   99.17    3.36
  -2  11   0   96.47    3.41
   2  11   0  103.74    3.53
   2  11   0   96.80    3.58
  -2  11   0  101.72    3.29
   2 -11   0  100.88    3.14
  -2 -11   0   97.19    3.45
  -2  11   0  102.06    3.02
  -2 -11   0   91.29    3.23
  -2  11   0  103.39    3.32
  -2  11   0   98.00    3.52
   2  11  -1   39.10    1.88
   2  11  -1   36.37    1.90
  -2 -11  -1   37.99    1.80
   2 -11   1   38.78    1.60
  -2 -11  -1   39.67    1.68
  -2 -11  -1   38.53    1.69
   2  11  -1   37.65    1.51
   2  11  -1   41.77    1.74
  -2  11   1   36.44    1.74
  -2  11   1   37.02    1.88
  -2  11   1   37.20    1.81
   2 -11   1   37.40    1.56
   2  11   1   39.39    1.73
   2 -11  -1   40.90    1.81
  -2 -11   1   37.68    1.75
  -2  11  -1   38.70    1.70
  -2  11  -1   40.30    1.93
   2 -11  -1   38.53    1.75
   2  11   1   36.75    1.54
  -2  11  -1   38.84    1.85
   2  11   1   35.63    2.13
  -2  11  -1   38.02    1.78
   2  11   1   38.52    1.87
   2  11   1   40.76    1.89
   2 -11  -1   38.73    1.56
   2  11   1   38.32    1.83
  -2  11  -1   41.42    1.82
  -2  11   2   65.56    2.53
  -2 -11  -2   64.55    2.48
   2  11  -2   63.98    2.86
   2  11  -2   66.32    2.32
  -2  11   2   62.22    2.64
   2  11  -2   66.89    2.23
  -2 -11  -2   62.63    2.44
  -2 -11  -2   64.54    2.44
   2 -11   2   64.49    2.54
  -2 -11  -2   63.81    2.53
   2  11  -2   57.08    2.33
  -2  11  -2   67.39    2.76
  -2  11  -2   65.64    2.34
   2 -11  -2   65.54    2.31
  -2  11  -2   67.97    2.31
  -2  11  -2   61.35    2.47
   2  11   2   67.66    2.48
  -2  11  -2   66.57    2.64
   2 -11  -2   62.03    2.36
  -2 -11   2   63.18    2.40
   2  11   2   64.62    2.66
  -2  11  -2   66.46    2.80
  -2  11  -2   64.26    2.51
   2  11  -3    1.99    0.74
   2  11  -3    1.45    0.51
  -2 -11  -3    1.36    0.78
  -2 -11  -3    0.99    0.59
   2  11  -3    1.46    0.60
   2 -11   3    1.70    0.39
  -2 -11  -3    1.13    0.61
  -2 -11  -3    0.45    0.69
  -2 -11  -3    1.53    0.64
   2  11  -3    1.81    0.57
   2 -11   3    1.95    0.69
   2  11  -3    1.73    0.74
  -2  11  -3    1.73    0.94
  -2  11  -3    1.16    0.46
  -2  11  -3    1.26    0.54
   2 -11  -3    2.38    0.66
  -2 -11   3    2.17    0.58
  -2  11  -3    1.25    0.71
   2 -11  -3    1.52    0.54
  -2  11  -3    0.95    0.86
  -2  11  -3    1.97    0.80
   2  11  -4    3.44    1.05
  -2 -11  -4    3.79    0.85
   2  11  -4    3.37    0.74
  -2 -11  -4    4.05    0.91
  -2 -11  -4    4.83    1.25
   2  11  -4    4.10    0.96
   2  11  -4    3.95    0.71
   2  11  -4    5.72    1.03
  -2 -11  -4    4.25    0.97
  -2 -11  -4    0.24    1.25
  -2  11  -4    4.94    1.08
  -2  11  -4    3.82    0.78
  -2  11  -4    4.33    0.79
   2 -11  -4    6.30    1.08
  -2  11  -4    4.96    1.40
  -2  11  -4    5.87    1.36
   2 -11  -4    5.14    0.86
   2  11  -5   10.29    1.29
   2  11  -5   14.13    2.07
   2  11  -5   13.93    1.60
  -2 -11  -5   11.94    1.58
  -2 -11  -5   15.36    1.51
   2  11  -5   14.59    1.27
  -2 -11  -5    9.34    1.60
  -2 -11  -5   13.20    1.44
   2  11  -5   14.66    1.15
   2 -11  -5   13.96    1.49
  -2  11  -5   16.06    1.28
  -2  11  -5   12.54    1.56
  -2  11  -5   11.28    2.07
  -2  11  -5   13.01    1.87
  -2  11  -5   14.55    1.26
   2 -11  -5   14.62    1.34
  -2 -11  -6    8.71    1.10
   2  11  -6    8.84    0.99
   2  11  -6    8.87    1.03
   2  11  -6    7.55    1.56
  -2 -11  -6   10.45    1.28
  -2  11  -6   11.81    1.20
   2 -11  -6    9.26    1.16
  -2  11  -6    8.40    0.95
  -2  11  -6    7.17    1.13
   2 -11  -6    9.49    1.29
  -2 -11  -7    8.91    1.40
  -2  11  -7    5.65    0.83
  -2  11  -7    8.10    1.31
   3  11   0   11.83    1.08
  -3  11   0   12.54    1.48
  -3  11   0   12.17    1.19
   3  11   0   14.04    0.93
   3 -11   0   12.65    0.91
  -3 -11   0   16.43    1.37
   3  11   0   14.22    1.24
  -3  11   0   13.37    1.24
  -3  11   0   12.16    1.06
   3 -11   0   13.90    0.94
   3  11   0   13.04    0.99
  -3  11   0   12.97    1.19
  -3  11   1   35.34    1.72
  -3  11   1   35.60    1.76
  -3  11   1   36.39    1.23
  -3 -11  -1   34.87    1.62
   3  11  -1   34.93    1.77
  -3  11   1   35.12    1.38
  -3  11   1   34.03    1.82
  -3 -11  -1   33.84    2.01
   3  11  -1   36.50    1.64
   3 -11   1   35.63    1.56
   3 -11   1   38.19    1.55
   3  11  -1   35.08    1.89
  -3 -11  -1   35.52    1.67
   3  11  -1   34.37    1.94
   3  11   1   38.74    1.82
  -3  11  -1   33.85    1.51
  -3 -11   1   37.68    1.75
  -3  11  -1   36.17    2.02
  -3  11  -1   32.59    1.88
   3  11   1   34.71    1.86
   3 -11  -1   35.89    1.61
  -3  11  -1   37.56    2.02
   3 -11  -1   37.01    1.81
  -3  11  -1   37.37    1.72
  -3  11  -1   36.59    1.78
   3  11   1   37.51    1.89
  -3  11  -1   35.27    1.76
   3  11   1   36.65    1.82
  -3  11   2   97.12    3.50
   3  11  -2   97.64    3.25
  -3 -11  -2   97.50    3.38
   3 -11   2   91.64    3.44
   3  11  -2   88.40    3.16
   3  11  -2   95.63    3.12
   3  11  -2   93.41    3.41
   3  11  -2   93.46    3.01
  -3  11   2   97.34    3.26
  -3 -11  -2   82.22    3.71
  -3 -11  -2   93.55    3.38
  -3 -11  -2   97.85    3.32
  -3 -11  -2   93.52    3.27
   3  11  -2   98.53    3.80
   3 -11  -2   93.86    3.08
   3  11   2   92.58    3.39
   3 -11  -2   93.75    3.16
  -3  11  -2   93.93    3.52
  -3  11  -2   96.97    3.75
  -3 -11   2   97.89    3.21
  -3  11  -2   93.73    3.09
  -3  11  -2   97.86    3.16
  -3  11  -2   92.65    3.50
  -3  11  -2   94.60    3.36
  -3  11  -2   98.66    3.35
   3 -11  -2   95.63    3.53
   3  11   2   91.33    3.35
  -3  11  -2  101.43    4.28
  -3 -11  -3   14.81    1.51
   3  11  -3   14.89    1.37
   3  11  -3   16.04    1.02
  -3 -11  -3   16.04    1.64
   3  11  -3   13.93    1.17
  -3 -11  -3   13.35    1.22
   3  11  -3   15.26    1.37
  -3 -11  -3   13.20    1.35
   3 -11   3   13.64    1.15
  -3  11  -3   16.75    1.68
  -3  11  -3   14.68    1.26
   3  11   3   13.44    0.90
  -3  11  -3   14.95    1.10
  -3  11  -3   15.21    1.42
   3 -11  -3   14.77    1.08
  -3  11  -3   16.76    1.71
  -3  11  -3   11.40    2.23
   3 -11  -3   16.23    1.23
   3  11  -4    6.12    1.81
   3  11  -4    7.72    1.18
  -3 -11  -4    5.87    1.02
   3  11  -4    7.00    0.94
   3  11  -4    6.97    0.87
  -3 -11  -4    6.63    1.17
  -3 -11  -4    7.16    1.21
   3 -11  -4    7.29    1.10
  -3  11  -4    7.12    0.98
  -3  11  -4    5.99    0.89
  -3  11  -4    7.34    1.20
   3 -11  -4    6.37    0.95
  -3  11  -4    5.28    2.55
  -3  11  -4    8.59    1.55
  -3  11  -4    7.64    1.79
  -3 -11  -5   14.72    2.24
   3  11  -5   20.73    1.30
  -3 -11  -5   22.50    1.77
   3  11  -5   18.09    1.44
   3  11  -5   16.26    1.70
   3  11  -5   19.51    2.14
  -3 -11  -5   21.61    1.72
  -3 -11  -5   19.20    2.00
  -3 -11  -5   14.59    1.96
   3  11  -5   24.20    1.83
   3 -11  -5   20.40    1.51
  -3  11  -5   20.46    2.41
  -3  11  -5   20.22    1.63
  -3  11  -5   21.27    1.52
  -3  11  -5   21.85    2.69
  -3  11  -5   27.35    2.80
   3 -11  -5   24.56    1.87
  -3  11  -5   19.74    1.72
  -3  11  -5   19.51    1.40
   3  11  -6    1.08    0.67
  -3 -11  -6    0.27    0.70
  -3 -11  -6   -0.20    0.70
   3  11  -6    1.16    0.64
  -3  11  -6    0.59    0.56
   3 -11  -6    0.00    0.76
  -3  11  -6    0.87    0.73
   3 -11  -6    1.55    1.01
  -3  11  -6   -0.29    0.66
  -4  11   0    5.91    0.99
  -4  11   0    5.87    0.71
  -4  11   0    9.78    1.25
   4  11   0    7.67    1.17
  -4  11   0    9.01    1.07
  -4 -11   0    8.84    1.14
   4 -11   0    7.48    0.82
   4 -11   0    8.82    0.91
   4  11   0    6.64    0.80
  -4  11   0    9.12    1.01
  -4 -11   0    7.40    0.78
   4  11   0    7.59    0.91
   4  11  -1   10.76    1.21
  -4  11   1   11.91    1.27
  -4 -11  -1   12.21    1.45
   4  11  -1   11.57    1.44
  -4  11   1   12.75    1.33
  -4 -11  -1    9.38    1.00
   4 -11   1    9.64    0.87
  -4 -11  -1   10.93    1.02
  -4 -11  -1   10.93    1.02
   4  11  -1   12.42    1.87
  -4  11   1   10.86    1.17
   4  11  -1   11.44    0.86
   4 -11  -1   10.75    0.94
  -4  11  -1   10.04    1.24
   4  11   1    8.05    1.13
   4  11   1   10.10    1.08
  -4  11  -1   11.65    1.10
  -4  11  -1   12.09    1.16
  -4  11  -1   12.15    1.28
  -4  11  -1    9.81    1.09
   4  11   1   10.07    0.91
  -4  11  -1   12.51    1.46
  -4 -11   1   11.07    1.04
   4 -11  -1    9.71    0.83
   4  11  -2    6.96    1.60
   4  11  -2    8.76    1.12
  -4 -11  -2    9.31    1.04
   4  11  -2    6.86    0.85
   4 -11   2   10.58    0.99
  -4  11   2    9.63    0.99
   4 -11   2    6.84    1.11
  -4  11   2    8.00    1.13
  -4 -11  -2    9.03    1.20
  -4 -11  -2    7.22    1.01
  -4 -11  -2    9.38    1.60
  -4 -11  -2    9.42    1.09
   4  11  -2    8.55    0.87
  -4  11  -2    7.28    0.80
  -4 -11   2    8.40    0.89
   4  11   2    7.90    1.07
   4  11   2    7.05    1.07
  -4  11  -2    8.43    0.88
  -4  11  -2    9.20    1.29
   4 -11  -2    7.53    0.89
  -4  11  -2    9.07    1.30
   4 -11  -2    8.38    0.86
  -4  11  -2    9.54    1.19
  -4  11  -2    9.58    1.19
   4  11   2    9.13    1.32
  -4  11  -2    9.05    1.31
  -4  11  -2    9.49    1.55
  -4 -11  -3    8.22    1.06
   4  11  -3    6.69    1.07
   4  11  -3    7.20    1.00
  -4 -11  -3    6.38    1.16
   4  11  -3    7.34    0.87
  -4 -11  -3    8.47    1.12
   4  11  -3    5.73    0.91
  -4 -11  -3    5.14    1.90
  -4 -11  -3    7.37    1.21
  -4 -11  -3    8.44    1.29
  -4  11  -3    7.29    1.43
  -4  11  -3    6.54    1.23
  -4  11  -3    7.47    1.08
  -4  11  -3    6.93    1.75
  -4  11  -3    6.56    1.08
   4 -11  -3    6.92    0.96
  -4  11  -3    8.85    0.99
   4 -11  -3    6.28    0.79
  -4  11  -3    6.47    0.86
   4  11   3    5.77    0.80
  -4  11  -3    7.17    1.26
  -4 -11  -4    0.29    0.63
  -4 -11  -4    0.28    0.72
  -4 -11  -4    0.72    0.98
  -4 -11  -4   -0.96    0.94
   4  11  -4   -0.23    0.43
   4  11  -4   -0.37    0.67
   4  11  -4   -0.21    0.60
  -4 -11  -4    0.28    1.02
   4  11  -4    1.25    0.89
   4 -11  -4    1.20    0.85
  -4  11  -4    0.68    0.60
  -4  11  -4    0.65    1.25
   4 -11  -4    0.25    0.56
  -4  11  -4    0.41    0.99
  -4  11  -4   -0.63    1.19
  -4  11  -4    0.40    0.64
  -4  11  -4   -0.36    0.61
  -4 -11  -5    7.40    1.79
  -4 -11  -5    5.58    0.99
   4  11  -5    5.91    0.87
   4  11  -5    7.00    1.02
  -4 -11  -5    7.21    1.30
  -4  11  -5    4.33    0.95
  -4  11  -5    8.58    1.91
   4 -11  -5    8.43    1.30
  -4  11  -5    6.29    1.00
  -4  11  -5    5.39    0.86
  -4  11  -5    6.21    1.07
   4 -11  -5    7.00    1.08
  -4 -11  -6    1.18    0.72
   4  11  -6    1.78    0.72
  -4 -11  -6    0.52    0.92
  -4  11  -6    1.45    0.80
  -4  11  -6    0.54    0.54
  -4  11  -6    0.78    0.73
   4 -11  -6    1.33    1.11
  -4  11  -6    0.73    1.10
   5  11   0   10.51    0.92
   5  11   0   11.91    1.46
  -5  11   0   10.98    1.29
  -5 -11   0   11.56    0.88
   5 -11   0    9.80    0.88
  -5  11   0   12.39    1.30
  -5 -11   0   11.50    1.30
  -5  11   0    9.60    0.80
   5 -11   0    9.45    0.95
  -5  11   0   10.69    1.16
  -5  11   1   13.43    1.23
  -5  11   1   13.77    1.28
   5  11  -1   13.98    1.03
  -5 -11  -1   15.41    1.11
   5 -11   1   13.78    1.05
   5  11  -1   13.80    1.62
  -5 -11  -1   14.05    1.40
  -5 -11  -1   14.91    1.49
  -5  11   1   14.71    1.24
   5 -11   1   15.41    1.05
   5  11   1   13.68    1.46
  -5  11  -1   14.37    1.15
   5 -11  -1   14.14    1.13
   5 -11  -1   15.07    1.01
  -5 -11   1   13.60    1.23
  -5  11  -1   13.48    1.26
  -5  11  -1   13.09    1.42
   5  11   1   16.41    1.29
   5  11   1   13.95    1.05
  -5  11  -1   16.23    1.70
  -5  11  -1   13.91    1.18
  -5  11  -1   15.16    1.57
   5 -11   2   73.38    3.18
   5  11  -2   70.91    2.91
   5  11  -2   73.73    2.75
  -5 -11  -2   70.70    2.74
  -5  11   2   72.70    3.01
  -5 -11  -2   70.44    2.88
  -5 -11  -2   72.89    2.75
   5 -11   2   73.60    2.63
   5  11  -2   71.91    2.55
  -5 -11  -2   73.87    3.34
  -5  11  -2   74.78    3.27
   5  11   2   77.06    3.08
  -5 -11   2   72.31    2.54
  -5  11  -2   72.60    2.85
  -5  11  -2   73.32    2.61
  -5  11  -2   72.09    3.41
  -5  11  -2   70.94    2.88
   5 -11  -2   73.47    2.62
  -5  11  -2   72.15    2.99
  -5  11  -2   70.18    2.95
   5  11   2   72.18    3.09
  -5  11  -2   77.15    3.75
   5 -11  -2   72.48    2.71
   5  11  -3   16.93    1.45
  -5 -11  -3   15.27    2.02
  -5 -11  -3   17.17    1.74
   5  11  -3   16.71    1.12
  -5 -11  -3   20.39    1.91
  -5 -11  -3   13.45    1.62
   5  11  -3   16.85    1.59
  -5 -11  -3   15.62    1.50
  -5  11  -3   15.03    1.91
  -5  11  -3   17.99    1.86
  -5  11  -3   21.43    2.40
   5 -11  -3   15.36    1.27
  -5  11  -3   17.72    1.50
  -5  11  -3   14.24    1.15
  -5  11  -3   14.73    1.77
  -5  11  -3   15.59    1.38
   5 -11  -3   16.12    1.13
  -5 -11  -4    5.98    1.15
  -5 -11  -4    7.44    1.41
  -5 -11  -4    7.46    1.37
  -5 -11  -4    8.64    1.76
   5  11  -4    5.67    1.02
   5  11  -4    7.06    0.91
  -5 -11  -4   10.01    2.85
  -5 -11  -4    7.53    1.71
   5  11  -4    8.51    1.36
  -5  11  -4    8.32    1.12
  -5  11  -4    9.31    2.22
   5 -11  -4    7.38    0.94
  -5  11  -4    8.35    1.47
  -5  11  -4    5.80    1.23
  -5  11  -4    3.09    1.67
  -5  11  -4    5.53    1.17
   5 -11  -4    7.16    1.09
  -5  11  -4    6.42    1.69
  -5 -11  -5    5.77    1.07
   5  11  -5    6.95    0.89
  -5 -11  -5    6.63    1.15
  -5 -11  -5    3.36    1.60
  -5  11  -5    6.05    0.91
  -5  11  -5    5.56    1.06
  -5  11  -5    4.38    1.02
   5 -11  -5    4.91    0.98
  -5  11  -5    8.49    1.77
   5 -11  -5    7.90    1.23
  -5 -11  -6    4.71    1.27
  -5 -11  -6    1.81    0.96
  -5  11  -6    0.25    1.25
  -5  11  -6    1.73    1.00
   5 -11  -6    1.59    1.78
  -5  11  -6    2.05    0.76
  -5  11  -6    4.00    0.96
  -6  11   0   -0.11    0.62
   6 -11   0    0.72    0.54
  -6 -11   0   -0.04    0.67
  -6  11   0    0.07    0.59
  -6  11   0    0.30    0.57
   6  11   0    0.49    0.46
  -6  11   0    0.47    0.31
   6 -11   0   -0.09    0.40
   6  11   0    0.18    0.58
   6  11   0    0.54    0.91
  -6 -11  -1   15.52    1.55
   6 -11   1   15.73    1.16
  -6  11   1   17.69    2.17
   6  11  -1   17.51    1.33
  -6 -11  -1   16.35    1.19
   6 -11   1   15.67    1.21
  -6  11   1   15.85    1.38
   6  11  -1   16.09    1.11
  -6  11   1   16.37    1.46
  -6  11  -1   14.55    1.79
  -6  11  -1   14.86    1.51
  -6  11  -1   15.83    1.54
   6 -11  -1   14.87    1.07
   6  11   1   16.84    1.16
   6 -11  -1   16.99    1.26
  -6  11  -1   14.78    1.22
   6  11   1   16.52    1.43
   6  11   1   15.11    1.67
  -6  11  -1   17.15    1.24
  -6 -11   1   17.51    1.38
   6 -11   2    5.76    0.99
   6 -11   2    5.91    1.32
   6  11  -2    6.51    1.07
  -6 -11  -2    8.28    1.03
  -6 -11  -2    8.36    1.19
   6  11  -2    7.97    0.92
  -6 -11  -2    9.20    1.04
  -6 -11  -2    8.15    1.51
   6  11  -2    8.67    1.08
  -6  11  -2    6.35    1.04
   6  11   2    7.72    1.30
  -6  11  -2    8.81    1.09
  -6  11  -2    8.25    1.11
  -6  11  -2    8.02    1.44
   6  11   2    8.11    1.31
  -6  11  -2    7.36    1.13
  -6  11  -2    6.50    1.64
   6 -11  -2    7.25    0.89
   6  11   2    5.23    0.89
  -6  11  -2    7.65    1.76
  -6  11  -2    6.01    0.82
  -6 -11   2    7.59    0.78
  -6 -11  -3   19.08    2.09
  -6 -11  -3   14.59    1.39
  -6 -11  -3   17.43    1.48
   6  11  -3   17.63    1.17
  -6 -11  -3   18.82    2.27
  -6 -11  -3   13.55    1.86
  -6 -11  -3   15.69    1.67
   6  11  -3   16.47    2.28
   6 -11   3   16.30    1.77
  -6  11  -3   19.60    2.33
   6  11   3   16.62    1.50
  -6  11  -3   15.51    1.23
  -6  11  -3   18.40    1.69
  -6  11  -3   15.58    1.54
   6 -11  -3   16.96    1.19
  -6  11  -3   15.60    1.40
  -6  11  -3   16.10    1.37
   6 -11  -3   15.83    1.35
  -6  11  -3   15.34    2.12
  -6  11  -3   17.45    2.28
  -6 -11  -4    1.36    0.76
   6  11  -4    1.06    0.87
  -6 -11  -4    1.02    0.96
  -6 -11  -4   -1.10    1.64
  -6 -11  -4    1.04    1.59
  -6 -11  -4    2.03    1.87
   6  11  -4    1.50    1.11
  -6  11  -4    2.11    0.86
  -6  11  -4    0.86    0.73
   6 -11  -4    0.93    0.91
  -6  11  -4    2.14    1.13
  -6  11  -4    4.66    1.80
  -6  11  -4    2.00    1.84
  -6  11  -4    0.26    2.22
  -6  11  -4    1.54    0.70
  -6 -11  -5    8.01    1.51
  -6 -11  -5    6.83    1.13
   6  11  -5    8.42    0.99
  -6 -11  -5    7.43    1.08
   6 -11  -5    8.26    1.12
  -6  11  -5    6.59    1.07
   6 -11  -5    8.48    1.36
  -6  11  -5    7.79    1.20
  -6  11  -5    6.22    1.58
  -6  11  -5    8.74    1.04
  -6  11  -5   10.05    1.32
  -6 -11  -6   11.29    1.13
  -6 -11  -6    9.36    1.12
  -6  11  -6   11.81    1.06
  -6  11  -6    9.40    0.97
  -7  11   0   20.35    1.65
   7 -11   0   22.60    1.41
   7  11   0   23.07    1.41
  -7 -11   0   23.48    1.60
  -7  11   0   23.34    1.62
   7  11   0   20.38    1.96
   7 -11   0   22.64    1.49
  -7  11   0   24.50    1.51
   7  11   0   23.47    1.61
  -7 -11  -1    6.33    1.25
  -7  11   1    4.60    1.10
   7 -11   1    6.05    0.91
   7 -11   1    5.31    0.84
  -7 -11  -1    5.26    0.81
   7  11  -1    5.30    1.62
   7  11  -1    5.50    0.92
   7 -11   1    2.49    1.20
  -7  11   1    3.31    0.80
  -7  11   1    5.96    1.31
   7  11   1    5.29    0.89
   7  11   1    4.58    0.96
  -7  11  -1    5.02    1.10
   7 -11  -1    5.74    0.90
  -7  11  -1    6.85    1.02
  -7  11  -1    6.41    1.11
  -7  11  -1    2.94    0.67
   7 -11   2    6.47    1.32
  -7 -11  -2   11.79    1.69
   7  11  -2    9.30    1.20
   7  11  -2    9.12    1.26
   7 -11   2   10.62    1.23
   7  11  -2    8.68    0.99
  -7 -11  -2    8.80    1.16
   7 -11   2    8.27    0.95
  -7  11  -2    9.99    1.37
  -7  11  -2   12.14    1.31
  -7  11  -2    6.24    2.32
   7 -11  -2    7.28    0.97
  -7  11  -2   11.34    1.30
   7 -11  -2    9.60    1.12
   7  11   2    8.50    1.14
   7  11   2   11.51    2.54
   7  11   2    8.70    1.43
  -7  11  -2   13.50    1.83
   7 -11   3    1.15    1.07
   7  11  -3    1.33    0.96
   7  11  -3    0.70    0.60
  -7 -11  -3    2.44    1.31
  -7 -11  -3    2.02    0.83
  -7 -11  -3    1.50    0.90
   7  11  -3    1.62    0.77
  -7  11  -3    0.66    0.87
  -7  11  -3    2.30    0.80
   7 -11  -3    1.87    0.63
  -7  11  -3    0.43    2.09
  -7  11  -3    1.05    0.81
   7 -11  -3    1.40    0.83
   7  11   3    1.32    0.89
  -7  11  -3    0.53    1.19
  -7  11  -3    2.01    0.92
  -7 -11  -4    9.34    1.36
   7  11  -4   13.21    1.10
  -7 -11  -4    9.68    1.48
  -7 -11  -4    9.50    1.18
  -7 -11  -4   12.47    2.09
   7  11  -4    8.64    1.35
  -7  11  -4   12.32    1.61
  -7  11  -4   12.39    1.40
   7 -11  -4   10.99    1.12
  -7  11  -4    7.63    1.84
  -7  11  -4   14.04    1.22
   7 -11  -4   13.29    1.39
  -7  11  -4   10.35    1.35
  -7 -11  -5    1.23    0.80
  -7 -11  -5    2.82    1.02
   7  11  -5    2.82    0.75
   7 -11  -5    2.16    0.94
  -7  11  -5    2.91    0.80
  -7  11  -5    9.70    2.50
  -7  11  -5    1.65    0.82
   7 -11  -5    4.13    1.27
  -7  11  -5    2.63    0.80
  -7 -11  -6    1.67    0.87
  -7  11  -6    0.05    0.68
   8 -11   0    2.21    0.71
  -8  11   0    3.62    0.96
   8  11   0    3.22    0.82
   8  11   0    2.63    1.19
  -8 -11   0    2.16    0.84
   8 -11   0    2.17    0.70
  -8  11   0    2.93    0.96
  -8  11   0    2.65    1.02
   8 -11   1    4.57    1.37
   8 -11   1    7.01    1.04
  -8  11   1    7.50    1.25
  -8  11   1    6.37    1.24
  -8  11   1    6.57    0.91
  -8 -11  -1    6.74    1.27
   8  11  -1    7.64    1.23
   8  11  -1    5.51    0.88
   8 -11   1    8.12    1.17
   8  11  -1    5.38    2.34
  -8 -11  -1    7.55    0.85
   8 -11  -1    7.21    0.99
   8 -11  -1    6.71    0.97
  -8  11  -1    7.80    1.38
   8  11   1    9.48    1.59
  -8 -11   1    7.11    0.99
  -8  11  -1    6.73    1.20
  -8  11  -1    7.03    1.13
  -8  11  -1    6.66    0.70
   8  11   1    8.69    1.54
   8  11   1    6.36    0.98
  -8 -11  -2    9.25    1.62
   8 -11   2    7.82    1.43
   8  11  -2    7.75    1.32
   8 -11   2    8.91    1.24
   8  11  -2    6.15    1.09
   8  11  -2    9.20    1.07
  -8 -11  -2    6.70    1.00
  -8  11  -2    7.29    1.44
   8 -11  -2    8.65    1.04
   8  11   2    9.61    1.53
   8 -11  -2   10.75    1.32
   8  11   2    5.41    1.11
  -8  11  -2    7.80    1.53
  -8  11  -2    7.97    1.10
  -8  11  -2    7.18    1.23
   8  11  -3   18.45    1.52
  -8 -11  -3   15.05    2.00
   8 -11   3   15.54    1.84
  -8 -11  -3   17.18    1.59
   8  11  -3   17.81    1.83
  -8 -11  -3   14.72    1.61
   8  11  -3   14.27    1.74
  -8  11  -3   23.20    2.44
  -8  11  -3   16.80    1.66
  -8  11  -3   18.65    1.58
  -8  11  -3   19.84    1.70
   8 -11  -3   17.78    1.54
   8  11   3   19.91    1.83
   8 -11  -3   21.18    1.85
   8  11  -4    4.08    0.82
  -8 -11  -4    2.13    1.52
  -8 -11  -4    3.70    1.12
  -8 -11  -4    6.01    1.23
  -8  11  -4    5.81    1.62
  -8  11  -4    3.53    1.21
   8 -11  -4    5.97    1.07
   8 -11  -4    2.82    0.80
  -8 -11  -5    2.57    0.91
  -8 -11  -5    3.60    2.17
  -8  11  -5    4.15    1.77
  -8  11  -5    1.85    0.70
   9  11   0    2.21    1.10
  -9  11   0    1.47    0.84
  -9  11   0    1.50    1.12
   9 -11   0    1.32    0.74
   9 -11   0    0.94    0.63
  -9 -11   0    0.88    0.84
  -9  11   0    1.07    0.78
   9 -11   0    1.75    1.38
   9  11   0    0.99    0.70
   9  11   0    3.60    1.55
  -9  11   1    5.45    0.78
   9 -11   1    5.28    1.64
   9  11  -1    2.99    0.77
   9  11  -1    6.01    1.25
   9 -11   1    5.37    1.07
  -9  11  -1    4.58    1.16
   9  11   1    3.06    1.28
   9 -11  -1    4.82    0.91
   9  11   1    3.12    1.34
  -9 -11   1    6.15    0.84
   9  11   1    3.87    0.95
  -9 -11  -2   14.79    1.87
   9  11  -2   12.28    1.61
  -9 -11  -2   12.14    1.15
   9  11  -2   12.86    1.48
   9 -11   2   14.82    1.32
   9  11  -2   14.79    1.92
   9 -11   2   12.83    1.90
   9 -11  -2   18.70    1.48
   9 -11  -2   14.60    2.00
  -9  11  -2   14.49    1.51
   9  11   2   12.99    1.73
  -9  11  -2   14.09    1.24
   9  11   2   15.15    1.36
  -9  11  -2   15.48    1.54
  -9  11  -2   13.15    1.81
   9  11  -3   25.82    1.54
  -9 -11  -3   27.12    2.45
  -9 -11  -3   28.17    1.85
   9 -11   3   28.07    2.36
   9 -11  -3   27.71    1.66
  -9  11  -3   24.98    1.88
   9 -11  -3   29.17    1.81
   9  11   3   23.29    2.03
  -9  11  -3   24.44    2.17
  -9  11  -3   25.02    1.74
   9  11  -4    3.00    0.72
  -9 -11  -4    5.01    2.13
  -9 -11  -4    0.75    0.99
  -9 -11  -4    1.14    1.33
  -9  11  -4    0.35    0.72
   9 -11  -4    1.97    0.79
   9 -11  -4    3.04    1.06
  -9  11  -4    4.22    1.30
  -9  11  -4    1.05    0.78
  -9  11  -4    3.89    1.23
  -9 -11  -5    1.89    1.86
  -9  11  -5    0.62    0.74
  -9  11  -5   -1.59    1.39
  -9  11  -5    0.69    0.56
 -10  11   0    4.12    1.14
 -10  11   0    3.43    0.93
  10 -11   0    2.82    0.83
  10 -11   0    3.35    0.91
  10  11   0    3.42    0.88
  10  11   0    2.65    2.01
  10 -11   0    2.49    2.69
  10  11   0    2.32    1.31
  10 -11   1   -0.03    0.85
  10 -11   1    0.70    1.43
  10  11  -1   -1.05    1.15
 -10 -11  -1    1.53    0.94
  10  11  -1    0.00    0.64
  10 -11   1    0.71    1.23
 -10  11  -1    0.63    0.95
  10  11   1    0.31    1.37
  10 -11  -1    0.72    0.66
 -10  11  -1    0.97    0.83
  10 -11  -1   -0.07    0.61
  10  11   1   -1.07    1.63
  10  11   1    0.61    0.78
 -10 -11  -2   13.26    1.72
  10  11  -2   16.37    1.33
  10 -11   2   15.14    2.12
  10 -11   2   19.82    1.69
 -10  11  -2   14.86    1.67
  10 -11  -2   17.59    1.41
  10  11   2   10.92    1.79
  10  11   2   17.42    1.87
  10 -11  -2   14.97    1.40
 -10 -11  -3    3.19    1.20
  10  11   3    8.64    1.97
 -10  11  -3    5.92    1.14
 -10  11  -3    7.07    1.12
 -10  11  -3    6.89    1.44
  10 -11  -3    8.37    1.12
 -10 -11  -4    1.83    1.25
  10  11  -4    0.80    0.72
  10 -11  -4    1.13    0.90
  10 -11  -4    0.53    0.77
 -10  11  -4    0.11    1.24
 -10  11  -4    1.02    0.74
  11 -11   0    3.65    2.21
 -11  11   0   -0.09    0.79
  11  11   0   -2.60    1.78
 -11 -11   0    1.03    1.13
  11 -11   0   -0.12    1.00
  11  11   0   -0.04    0.71
  11 -11   0    1.17    0.69
  11 -11   1    0.47    0.95
  11 -11   1    0.10    1.04
  11 -11   1    0.95    1.55
  11  11  -1   -0.52    0.64
  11  11   1    0.98    0.98
  11 -11  -1    0.74    0.80
 -11  11  -1    0.33    1.20
  11  11   1   -1.15    1.40
  11 -11  -1   -0.20    0.71
  11 -11   2    1.74    1.10
  11 -11   2    5.45    1.56
  11  11  -2    1.44    1.23
 -11 -11  -2    2.48    1.06
  11 -11  -2    2.85    1.42
  11 -11  -2    2.52    0.87
 -11  11  -2    2.36    0.95
 -11  11  -2    2.01    0.92
  11  11   2    3.14    1.32
  11  11  -3    1.18    0.66
 -11 -11  -3    1.85    1.09
  11 -11  -3    0.19    0.71
 -11  11  -3    2.25    1.06
  11 -11  -3    2.58    0.84
 -11  11  -3    1.06    0.73
 -11 -11  -4    1.74    1.00
 -11  11  -4    2.05    1.06
 -11  11  -4    1.45    0.61
  12 -11   0    2.70    0.74
  12 -11   0    2.53    0.97
  12  11   0    0.66    0.85
  12 -11   1    0.00    1.27
  12  11  -1    2.15    0.83
 -12 -11  -1    3.35    0.87
  12 -11   1    2.54    0.81
  12 -11  -1    2.81    0.89
 -12  11  -1    2.71    1.00
  12 -11  -1    2.38    0.76
 -12  11  -1    4.00    0.86
  12  11   1    4.39    0.93
  12  11   1    0.64    1.15
 -12 -11  -2    1.01    0.84
  12  11  -2    0.49    0.78
 -12  11  -2    1.79    0.85
  12 -11  -2    0.89    0.79
 -12  11  -2    1.13    0.72
  12 -11  -2    1.76    0.72
 -12 -11  -3    1.87    0.87
 -12  11  -3    3.10    0.77
 -12  11  -3    4.75    1.03
  12 -11  -3    4.36    0.81
  13 -11   0    0.52    0.98
  13  11   0    1.28    0.65
  13 -11   1    7.02    1.03
  13  11   1   -0.22    1.22
  13 -11  -2    2.36    0.62
 -13  11  -2    0.88    0.92
   0  12   0   84.87    3.04
   0 -12   0   81.53    2.77
   0  12   0   80.17    2.85
   0 -12   0   84.78    2.89
   0  12   0   83.89    3.02
   0  12   0   84.62    2.90
   0 -12  -1  251.43    7.01
   0  12   1  246.27    7.06
   0  12  -1  243.72    7.33
   0 -12  -1  252.24    7.05
   0  12   1  248.02    7.22
   0  12   1  241.04    7.18
   0  12   1  241.95    7.42
   0  12  -1  247.04    7.53
   0  12  -1  258.89    7.19
   0  12  -1  251.06    6.89
   0  12   1  248.99    7.12
   0  12  -1  241.33    7.54
   0 -12  -1  245.06    7.13
   0  12  -2    1.34    0.51
   0  12  -2    1.86    0.83
   0  12   2    2.70    0.84
   0  12  -2    2.32    0.74
   0  12  -2    1.28    0.73
   0  12  -2    2.08    0.81
   0  12  -2    1.86    0.53
   0 -12   2    2.64    0.58
   0 -12  -2    2.77    0.64
   0  12   2    2.03    0.82
   0 -12  -2    1.59    0.67
   0 -12  -2    1.55    0.53
   0 -12  -3    8.49    1.05
   0 -12  -3    7.88    1.48
   0  12  -3    6.36    0.78
   0  12  -3    5.65    0.99
   0 -12  -3    7.67    0.96
   0  12  -3    7.78    1.04
   0  12  -3    7.72    1.25
   0  12  -3    6.86    0.84
   0 -12  -4    1.10    0.68
   0 -12  -4    1.54    0.72
   0  12  -4    0.60    0.80
   0  12  -4    0.54    0.55
   0  12  -4    1.83    0.66
   0  12  -4    1.47    0.74
   0  12  -4    1.27    1.06
   0 -12  -5   -0.26    0.63
   0  12  -5   -0.06    0.49
   0 -12  -5   -1.62    0.71
   0  12  -5   -0.13    0.67
   0  12  -5    0.20    0.57
   0  12  -6    7.90    0.96
   0 -12  -6   11.45    1.31
   0 -12  -6    7.12    1.14
   0  12  -6    9.80    1.21
   0  12  -6   11.29    1.11
  -1  12   0  211.70    6.19
   1  12   0  213.33    6.38
  -1  12   0  215.23    6.18
  -1  12   0  217.42    6.27
   1 -12   0  194.85    6.65
   1  12   0  216.13    6.38
   1 -12   0  211.40    6.03
  -1 -12   0  219.48    6.15
  -1  12   0  211.23    6.65
  -1  12   0  207.19    6.48
  -1 -12   0  214.00    6.04
   1  12   0  202.95    6.10
   1  12   0  210.56    6.18
  -1  12   0  210.87    5.89
   1  12  -1   13.14    1.21
   1  12  -1   12.44    0.89
  -1 -12  -1   11.63    1.11
   1 -12   1   12.81    1.02
  -1  12   1   13.70    1.43
   1  12  -1   12.23    1.04
  -1  12   1   13.09    1.15
  -1  12   1   13.09    0.97
  -1 -12  -1   13.61    1.00
  -1  12   1   12.89    1.19
   1  12  -1   13.77    1.24
   1  12  -1   12.15    0.97
  -1 -12  -1   14.09    1.02
  -1  12   1    9.03    0.99
   1 -12  -1   13.42    0.98
  -1  12  -1   13.83    1.05
  -1  12  -1   13.36    0.92
   1  12   1   13.64    1.13
   1  12   1   13.85    1.07
   1  12   1   16.41    1.65
   1 -12  -1   12.06    1.05
  -1  12  -1   13.31    1.21
   1 -12  -1   12.80    0.99
  -1  12  -1   12.03    1.16
   1  12   1   13.75    1.17
  -1  12  -1   13.55    1.17
   1  12   1   13.07    1.17
   1  12  -2   12.59    0.89
  -1 -12  -2   12.91    1.05
  -1  12   2   15.93    1.54
   1  12  -2   13.56    1.49
   1  12  -2   13.77    1.23
  -1  12   2   13.12    1.35
   1  12  -2   12.96    1.12
  -1 -12  -2   13.60    1.10
   1  12  -2   14.69    1.01
  -1 -12  -2   12.45    1.16
   1  12  -2   13.74    1.15
   1 -12  -2   11.40    1.01
  -1  12  -2   13.68    1.56
  -1  12  -2   12.55    0.96
   1  12   2   14.10    1.41
   1 -12  -2   13.04    0.98
   1  12   2   14.09    1.42
  -1  12  -2   14.18    1.22
  -1  12  -2   12.59    0.91
  -1  12  -2   12.30    1.26
  -1 -12   2   11.51    0.80
   1 -12  -2   14.22    1.26
  -1  12  -2   13.16    1.41
  -1  12  -2   13.91    1.15
  -1 -12   2   11.98    0.59
   1  12  -3    8.00    0.92
   1  12  -3    7.11    1.54
   1  12  -3    9.21    1.14
  -1 -12  -3    6.84    0.98
  -1 -12  -3    7.64    1.57
   1  12  -3    8.69    0.94
   1  12  -3    9.60    1.19
  -1 -12  -3    9.27    1.22
   1  12  -3    6.54    1.12
   1 -12  -3    8.90    1.02
  -1  12  -3    8.93    1.23
   1 -12  -3    6.63    0.87
  -1  12  -3    8.38    1.30
  -1  12  -3    8.86    1.32
  -1  12  -3    6.72    1.25
   1 -12  -3    8.27    1.33
  -1 -12  -4   26.38    1.74
  -1 -12  -4   26.67    1.89
   1  12  -4   32.13    2.45
   1  12  -4   26.93    1.74
   1  12  -4   29.76    2.02
   1  12  -4   27.01    1.49
  -1 -12  -4   28.54    1.83
   1  12  -4   27.30    1.58
  -1  12  -4   29.06    1.60
  -1  12  -4   26.98    2.05
   1 -12  -4   27.64    1.78
  -1  12  -4   27.17    1.52
  -1  12  -4   27.17    3.85
  -1  12  -4   26.76    1.81
   1 -12  -4   24.50    1.62
  -1  12  -4   23.73    2.19
  -1 -12  -5   12.94    1.46
  -1 -12  -5   11.46    1.43
   1  12  -5   11.42    1.41
   1  12  -5   13.62    1.18
   1  12  -5   13.14    1.14
   1  12  -5   13.10    2.16
   1 -12  -5   11.07    1.34
  -1  12  -5   13.77    1.52
  -1  12  -5   13.70    1.19
  -1  12  -5   12.15    1.28
  -1  12  -5    7.80    2.77
   1 -12  -5   12.55    1.45
   1  12  -6    3.19    0.94
  -1 -12  -6    4.93    0.98
   1  12  -6    6.09    0.94
  -1 -12  -6    5.03    0.99
   1  12  -6    5.41    0.85
   1 -12  -6    4.76    1.02
   1 -12  -6    3.60    0.88
  -1  12  -6    4.68    0.79
  -1  12  -6    4.59    0.93
  -1  12  -6    5.82    0.93
  -1 -12  -7    1.87    0.69
  -1  12  -7    1.44    0.50
  -2  12   0    2.57    0.61
  -2  12   0    3.51    0.77
  -2 -12   0    3.52    0.65
  -2 -12   0    2.30    0.66
   2  12   0    3.59    0.60
   2  12   0    2.28    0.75
  -2  12   0    2.63    0.95
   2  12   0    2.19    0.76
  -2  12   0    3.03    0.68
   2  12   0    2.94    0.68
  -2  12   0    2.04    0.56
   2  12   0    3.88    0.81
   2 -12   0    3.78    0.65
  -2  12   0    4.40    0.78
  -2 -12  -1   19.14    1.20
   2  12  -1   19.14    1.41
   2 -12   1   19.10    1.27
  -2 -12  -1   19.00    1.54
   2  12  -1   19.97    1.07
  -2  12   1   18.10    1.41
   2  12  -1   18.42    1.35
   2  12  -1   19.51    1.24
  -2  12   1   18.45    1.36
  -2 -12  -1   20.38    1.22
  -2  12   1   26.89    2.26
  -2  12  -1   17.53    1.29
   2  12   1   18.55    1.37
  -2  12  -1   19.87    1.25
  -2 -12   1   18.92    1.32
  -2  12  -1   15.88    1.59
  -2  12  -1   18.93    1.48
   2 -12  -1   20.41    1.33
  -2  12  -1   18.81    1.29
   2 -12  -1   19.10    1.10
   2  12   1   18.61    1.21
  -2  12  -1   20.63    1.31
   2 -12  -1   18.45    1.13
   2  12   1   20.33    1.30
   2  12   1   19.72    1.70
   2  12   1   18.08    1.39
   2  12  -2   22.18    1.39
   2  12  -2   24.18    1.23
   2  12  -2   22.97    1.38
  -2 -12  -2   26.22    2.45
  -2 -12  -2   23.45    1.37
   2  12  -2   22.28    1.53
   2  12  -2   24.00    1.83
  -2 -12  -2   24.95    1.40
  -2  12   2   24.60    1.67
   2 -12   2   23.09    1.48
  -2  12   2   22.98    1.52
   2  12  -2   24.01    1.32
  -2 -12  -2   22.98    1.51
  -2  12  -2   22.46    1.50
   2 -12  -2   20.48    1.51
   2  12   2   23.66    1.38
   2 -12  -2   21.65    1.33
  -2  12  -2   22.14    1.45
  -2  12  -2   21.57    1.51
  -2  12  -2   24.15    2.31
  -2  12  -2   25.82    1.31
   2 -12  -2   22.12    1.24
  -2  12  -2   22.02    1.68
  -2  12  -2   20.62    1.45
  -2  12  -2   23.12    1.27
   2  12   2   25.11    1.71
  -2 -12   2   24.14    1.41
   2  12  -3   40.38    2.17
  -2 -12  -3   36.59    1.88
  -2 -12  -3   36.62    1.90
   2 -12   3   32.81    1.08
   2  12  -3   35.32    1.80
  -2 -12  -3   35.74    1.94
   2  12  -3   36.78    2.09
  -2 -12  -3   37.11    2.07
   2  12  -3   36.37    1.74
   2  12  -3   36.75    1.91
  -2  12  -3   36.63    1.95
  -2  12  -3   39.92    2.48
  -2  12  -3   38.12    1.98
  -2  12  -3   35.42    2.21
  -2  12  -3   38.49    1.78
  -2  12  -3   38.94    2.19
  -2  12  -3   35.60    1.68
   2 -12  -3   37.20    1.86
   2  12  -4   10.48    1.09
   2  12  -4   12.89    1.53
  -2 -12  -4    9.87    1.77
   2  12  -4   13.13    1.39
   2  12  -4   11.43    2.32
  -2 -12  -4   12.27    1.35
   2  12  -4   12.67    1.20
  -2 -12  -4   10.98    1.29
   2 -12  -4   10.28    1.23
  -2  12  -4   10.38    1.28
  -2  12  -4   11.22    1.33
   2 -12  -4   10.89    1.17
  -2  12  -4   12.02    1.11
  -2  12  -4    9.63    1.96
  -2  12  -4   12.68    1.15
  -2  12  -4   15.90    3.05
  -2 -12  -5   10.32    1.35
  -2 -12  -5   10.34    1.35
   2  12  -5   10.36    1.19
   2  12  -5    9.53    1.07
   2  12  -5   10.02    1.87
   2  12  -5   10.21    1.56
   2  12  -5   12.26    1.41
  -2  12  -5   12.12    1.43
   2 -12  -5   11.32    1.35
  -2  12  -5   10.60    1.22
  -2  12  -5   10.89    1.21
  -2  12  -5    6.24    1.92
   2 -12  -5    9.90    1.25
  -2  12  -5    8.50    1.84
   2  12  -6    0.27    1.14
  -2 -12  -6    1.27    0.79
  -2 -12  -6    1.87    0.78
   2  12  -6    3.29    0.71
   2  12  -6    2.13    0.69
   2 -12  -6    0.58    0.89
  -2  12  -6    1.64    0.64
  -2  12  -6    1.88    0.77
   2 -12  -6    0.87    0.75
  -2  12  -6    2.43    0.83
  -3  12   0   46.07    2.24
   3  12   0   47.47    2.25
   3 -12   0   48.32    1.90
  -3  12   0   45.42    2.00
  -3 -12   0   45.92    1.88
  -3  12   0   50.82    1.97
  -3  12   0   46.70    2.10
  -3 -12   0   43.63    2.14
   3  12   0   49.55    2.21
  -3  12   0   45.61    2.10
   3 -12   0   48.02    1.89
  -3  12   0   45.28    2.20
   3  12   0   45.58    1.99
  -3  12   1   38.99    1.91
  -3 -12  -1   39.53    2.10
  -3 -12  -1   35.36    1.73
   3  12  -1   40.67    1.60
   3  12  -1   38.84    2.07
   3  12  -1   39.87    1.78
   3  12  -1   35.33    2.08
   3 -12   1   36.11    1.65
   3 -12   1   39.27    1.66
  -3  12   1   38.55    1.42
  -3  12   1   33.36    1.68
  -3 -12  -1   37.43    1.74
  -3  12   1   39.76    1.89
  -3  12  -1   42.29    1.93
  -3  12  -1   38.01    1.82
  -3  12  -1   39.48    1.97
   3  12   1   38.19    2.07
  -3  12  -1   38.35    1.60
   3  12   1   39.50    1.83
   3  12   1   40.29    1.74
   3 -12  -1   39.70    1.93
   3 -12  -1   36.97    1.68
  -3  12  -1   40.17    1.92
   3  12   1   37.35    1.97
  -3  12  -1   36.70    2.12
   3  12   1   39.82    1.97
  -3  12  -1   42.56    2.15
   3  12   1   38.06    2.29
  -3 -12   1   36.63    1.84
   3 -12  -1   39.82    1.65
  -3  12   2   75.19    3.03
  -3 -12  -2   70.61    3.30
  -3 -12  -2   75.66    2.84
  -3 -12  -2   76.65    2.95
   3  12  -2   74.88    3.37
   3  12  -2   76.87    2.61
   3  12  -2   76.58    3.04
   3  12  -2   76.19    2.85
   3 -12   2   71.03    2.97
  -3 -12  -2   76.28    2.83
  -3  12  -2   77.12    3.31
   3  12   2   75.75    2.93
  -3  12  -2   77.64    3.09
  -3  12  -2   74.99    2.63
   3 -12  -2   73.79    2.71
  -3  12  -2   77.11    2.98
   3 -12  -2   73.75    3.10
   3  12   2   73.69    3.10
   3 -12  -2   73.84    2.64
  -3  12  -2   75.28    2.69
  -3  12  -2   76.20    2.92
  -3  12  -2   73.45    3.41
  -3 -12   2   76.88    2.78
  -3  12  -2   79.10    3.13
   3  12  -3    9.26    1.16
  -3 -12  -3   10.32    1.40
   3  12  -3   10.15    1.27
   3  12  -3    7.62    1.53
   3  12  -3    9.81    0.92
   3 -12   3    7.46    0.90
  -3 -12  -3    9.43    1.17
  -3 -12  -3   10.38    1.22
   3  12  -3    8.26    1.26
  -3 -12  -3    9.95    1.33
  -3  12  -3    7.90    1.43
   3 -12  -3    8.13    0.96
  -3  12  -3    7.60    2.07
  -3  12  -3   11.91    1.73
   3  12   3    7.70    0.72
  -3  12  -3    9.72    1.20
  -3  12  -3   10.46    1.32
  -3  12  -3    9.23    0.94
  -3  12  -3    8.00    1.37
  -3  12  -3   10.41    1.52
   3 -12  -3   10.69    1.23
   3  12  -4   50.41    2.73
  -3 -12  -4   50.63    2.47
   3  12  -4   46.74    2.17
   3  12  -4   48.59    2.37
   3  12  -4   44.49    2.02
  -3 -12  -4   49.39    2.77
  -3 -12  -4   49.65    2.85
   3  12  -4   49.55    2.48
  -3 -12  -4   50.05    2.49
  -3 -12  -4   48.19    2.69
   3 -12  -4   51.38    2.33
  -3  12  -4   50.09    3.00
  -3  12  -4   49.39    2.40
  -3  12  -4   49.34    2.20
   3 -12  -4   48.82    2.22
  -3  12  -4   46.25    2.18
  -3  12  -4   47.33    2.96
  -3  12  -4   48.97    2.50
  -3  12  -4   47.31    3.32
   3  12  -5    4.06    0.87
   3  12  -5    3.14    1.37
  -3 -12  -5    0.15    1.80
  -3 -12  -5    1.59    2.50
   3  12  -5    2.63    0.74
  -3 -12  -5    2.50    0.84
   3  12  -5    2.26    1.23
  -3 -12  -5    2.33    0.88
  -3  12  -5    6.76    2.22
  -3  12  -5    3.08    0.70
   3 -12  -5    3.15    0.89
   3 -12  -5    3.83    1.08
  -3  12  -5    4.99    2.19
  -3  12  -5    1.65    2.44
  -3  12  -5    1.98    0.99
  -3  12  -5    2.88    0.94
  -3  12  -5    1.69    0.80
  -3 -12  -6    0.43    0.85
   3  12  -6    1.81    0.63
  -3 -12  -6    0.49    0.69
   3  12  -6    1.17    0.66
   3 -12  -6    0.57    1.29
   3 -12  -6    1.91    0.85
  -3  12  -6    0.78    0.65
  -3  12  -6    1.90    0.64
  -4  12   0   53.80    2.44
  -4  12   0   49.10    2.47
  -4  12   0   54.71    2.35
  -4  12   0   54.60    2.07
  -4 -12   0   54.41    2.07
   4  12   0   52.80    2.08
   4  12   0   53.04    2.24
  -4 -12   0   53.37    2.38
   4 -12   0   55.02    2.14
   4  12   0   58.23    3.14
  -4  12   0   51.24    2.20
   4  12   0   49.66    2.47
   4 -12   0   54.15    2.08
   4  12  -1    7.90    1.31
   4 -12   1    9.45    0.93
  -4 -12  -1    8.99    1.31
  -4 -12  -1    9.34    1.03
  -4  12   1   11.72    1.25
  -4  12   1    9.49    1.14
   4 -12   1    8.36    0.92
   4  12  -1    8.75    0.88
   4  12  -1    8.43    0.97
  -4 -12  -1    9.46    0.98
  -4  12   1   10.26    1.25
   4  12  -1    9.32    1.12
  -4  12  -1    7.76    1.22
  -4  12  -1    9.88    1.12
   4  12   1    9.96    1.13
   4  12   1    9.04    1.17
  -4  12  -1   10.26    1.49
  -4  12  -1   11.63    1.28
  -4  12  -1    9.70    1.07
   4  12   1    9.84    1.22
  -4 -12   1    9.04    1.06
   4 -12  -1    8.49    0.94
   4  12   1    8.43    0.89
   4 -12  -1    8.90    0.91
  -4  12  -1    8.76    1.29
   4 -12   2   37.32    1.68
   4 -12   2   32.69    1.98
  -4 -12  -2   35.60    1.80
   4  12  -2   38.56    1.82
  -4 -12  -2   36.01    1.83
  -4  12   2   35.56    2.04
   4  12  -2   37.82    2.00
  -4 -12  -2   34.06    1.86
  -4  12   2   32.48    1.70
   4  12  -2   32.47    2.46
   4  12  -2   34.14    1.56
  -4 -12  -2   34.90    2.35
   4 -12  -2   37.80    1.64
  -4  12  -2   34.70    1.81
  -4  12  -2   33.53    1.60
  -4  12  -2   37.38    2.31
   4  12   2   33.30    2.12
  -4  12  -2   35.42    1.99
   4  12   2   33.45    1.92
  -4 -12   2   35.91    1.70
  -4  12  -2   29.43    2.09
  -4  12  -2   36.58    2.19
  -4  12  -2   35.23    1.64
  -4  12  -2   31.64    2.34
   4 -12  -2   35.62    1.70
  -4 -12  -3   11.92    1.57
   4  12  -3   13.68    1.50
   4 -12   3    8.58    1.03
  -4 -12  -3   10.95    1.45
   4  12  -3   12.24    1.01
   4  12  -3   13.74    1.19
  -4 -12  -3   10.02    1.19
   4  12  -3   10.02    1.18
  -4 -12  -3   13.27    2.36
  -4 -12  -3   10.57    1.32
  -4 -12  -3   11.71    1.53
  -4  12  -3   13.89    1.31
  -4  12  -3   12.28    1.39
   4 -12  -3   12.21    1.23
  -4  12  -3   11.83    1.73
  -4  12  -3   13.10    1.65
  -4  12  -3   11.18    1.57
   4  12   3   14.24    1.13
  -4  12  -3   12.23    1.11
   4 -12  -3   12.59    1.57
  -4  12  -3   12.54    2.02
   4  12  -4   11.97    1.20
  -4 -12  -4   14.58    1.96
  -4 -12  -4   13.35    1.46
   4  12  -4   13.59    1.49
   4  12  -4   15.19    1.76
   4  12  -4   11.58    1.07
  -4 -12  -4   10.49    1.42
  -4 -12  -4   13.11    1.68
  -4 -12  -4   11.69    1.61
  -4  12  -4   13.35    1.31
  -4  12  -4   14.97    2.12
  -4  12  -4   15.05    2.23
   4 -12  -4   13.80    1.15
  -4  12  -4   13.78    1.86
  -4  12  -4   11.84    1.57
  -4  12  -4   14.79    1.29
   4 -12  -4   13.45    1.35
  -4  12  -4   15.06    1.49
  -4 -12  -5    1.95    0.88
   4  12  -5    2.59    1.04
  -4 -12  -5    1.73    1.44
   4  12  -5    1.39    0.65
  -4 -12  -5    1.63    0.88
  -4  12  -5    1.06    1.69
  -4  12  -5    1.11    0.63
   4 -12  -5    2.08    0.83
  -4  12  -5    2.01    0.82
  -4  12  -5    1.87    0.85
  -4 -12  -6    1.11    1.10
  -4 -12  -6    0.44    0.67
   4  12  -6    0.72    0.85
  -4  12  -6    1.49    0.90
   4 -12  -6   -0.08    0.78
   4 -12  -6    0.19    0.96
  -4  12  -6    0.16    0.55
  -4  12  -6    0.80    0.64
  -5  12   0   16.37    0.98
   5  12   0   15.40    1.22
   5  12   0   14.44    1.57
  -5 -12   0   16.69    1.62
   5 -12   0   15.76    1.09
   5  12   0   15.21    1.12
  -5  12   0   17.51    1.57
  -5 -12   0   15.71    1.03
  -5  12   0   16.43    1.26
  -5  12   0   19.58    2.37
  -5  12   1   18.27    1.45
  -5  12   1   17.83    1.39
   5  12  -1   20.19    1.38
   5  12  -1   19.20    1.18
  -5 -12  -1   19.98    1.30
  -5 -12  -1   18.34    1.82
   5  12  -1   19.06    3.03
   5  12  -1   20.41    1.53
   5 -12   1   20.05    1.24
  -5  12   1   19.93    1.48
  -5 -12  -1   19.56    1.34
  -5  12  -1   19.22    1.33
   5 -12  -1   17.72    1.17
   5  12   1   19.60    1.43
  -5  12  -1   18.98    1.45
  -5 -12   1   19.56    1.47
  -5  12  -1   21.17    1.54
  -5  12  -1   23.07    2.15
   5  12   1   19.95    1.62
   5  12   1   19.59    1.26
   5 -12   2   18.41    1.26
  -5 -12  -2   19.61    2.09
   5  12  -2   19.28    1.18
   5 -12   2   18.49    1.48
   5  12  -2   17.74    1.51
   5 -12   2   15.22    1.69
  -5 -12  -2   19.78    1.41
  -5 -12  -2   19.37    1.49
   5  12  -2   18.99    1.34
  -5 -12  -2   19.61    1.36
  -5  12   2   18.66    1.41
  -5  12  -2   17.38    1.25
  -5  12  -2   17.29    1.47
   5 -12  -2   18.09    1.18
   5 -12  -2   17.51    1.31
  -5  12  -2   21.14    2.01
  -5 -12   2   19.30    1.25
   5  12   2   18.66    1.59
  -5  12  -2   17.82    1.20
  -5  12  -2   18.77    1.37
  -5  12  -2   16.57    1.91
  -5  12  -2   22.27    2.19
  -5  12  -2   17.69    1.54
   5  12   2   21.87    2.03
   5 -12   3    4.17    1.37
  -5 -12  -3    4.29    1.51
   5  12  -3    3.63    0.71
  -5 -12  -3    4.33    0.95
  -5 -12  -3    3.46    1.06
  -5 -12  -3    4.58    1.11
   5  12  -3    3.72    0.83
  -5 -12  -3    3.04    0.80
   5  12  -3    3.34    0.93
  -5  12  -3    4.08    0.95
  -5  12  -3    4.51    1.13
   5 -12  -3    3.84    0.87
   5  12   3    2.89    0.79
  -5  12  -3    4.60    1.53
  -5  12  -3    3.30    0.71
  -5  12  -3    3.39    0.98
  -5  12  -3    4.93    0.85
  -5  12  -3    3.70    1.28
   5 -12  -3    3.06    0.69
  -5 -12  -4    6.40    1.07
  -5 -12  -4   10.42    2.56
  -5 -12  -4    5.92    1.66
   5  12  -4    9.54    1.45
   5  12  -4    6.64    1.14
  -5 -12  -4    6.61    1.75
  -5  12  -4    8.30    1.30
  -5  12  -4    4.46    2.15
  -5  12  -4    6.08    1.04
  -5  12  -4    5.67    1.06
  -5  12  -4    8.38    2.04
   5 -12  -4    8.98    1.16
  -5  12  -4    7.85    2.28
  -5  12  -4    8.86    2.42
  -5 -12  -5   12.71    1.45
  -5 -12  -5    9.51    1.42
  -5 -12  -5   13.41    2.64
   5  12  -5   10.18    1.06
  -5  12  -5    8.49    1.25
  -5  12  -5    9.61    1.70
  -5  12  -5   12.73    1.93
  -5  12  -5    9.04    1.13
   5 -12  -5    8.74    1.19
  -5  12  -5    7.20    2.00
  -5 -12  -6   -0.03    0.63
   5 -12  -6   -2.29    1.06
  -5  12  -6    0.00    0.62
  -5  12  -6    0.10    0.52
   6  12   0    3.39    0.94
   6  12   0    2.52    0.91
   6 -12   0    4.30    0.84
  -6  12   0    3.84    1.02
  -6  12   0    3.06    0.46
  -6  12   0    4.15    1.00
   6  12   0    4.16    1.28
  -6 -12   0    3.99    1.16
  -6  12   0    3.32    0.93
   6  12  -1    0.95    0.54
   6  12  -1    1.25    0.74
   6 -12   1    0.63    0.53
  -6  12   1    1.21    0.70
   6  12  -1    0.31    1.18
   6 -12   1    1.64    0.60
  -6 -12  -1    0.79    0.58
  -6  12   1    0.60    0.71
  -6  12   1    1.17    0.70
  -6 -12  -1    2.14    0.99
   6  12   1    1.54    0.90
  -6  12  -1    2.01    0.88
  -6 -12   1    0.05    0.68
   6 -12  -1    0.98    0.53
  -6  12  -1    0.94    0.58
  -6  12  -1    0.64    0.78
   6  12   1    1.35    0.66
   6  12   1    0.04    0.67
   6 -12  -1    0.97    0.56
  -6  12  -1    1.00    0.74
  -6 -12  -2    9.24    1.56
   6 -12   2    8.35    0.99
   6 -12   2   11.78    1.26
   6  12  -2    8.85    1.00
   6  12  -2   10.21    1.16
   6 -12   2    8.91    1.55
   6  12  -2   10.58    1.39
  -6  12   2   14.05    1.53
  -6 -12  -2    5.43    1.16
  -6 -12  -2    8.96    1.16
  -6 -12  -2    9.88    1.07
  -6  12  -2    9.83    1.83
  -6  12  -2    8.76    1.51
   6  12   2   11.19    1.79
   6  12   2    6.76    1.69
  -6  12  -2    9.40    1.17
  -6 -12   2    8.99    0.88
  -6  12  -2    9.53    1.32
   6 -12  -2    9.40    1.03
   6 -12  -2    8.81    1.08
   6  12   2    7.31    1.08
  -6 -12  -3   10.87    1.69
   6  12  -3    8.76    1.02
  -6 -12  -3   14.44    2.21
   6  12  -3    7.93    1.19
  -6 -12  -3    7.41    1.30
   6  12  -3    8.80    1.35
  -6 -12  -3    9.38    1.23
   6 -12   3   10.30    1.50
  -6  12  -3   10.91    1.24
  -6  12  -3    8.53    1.42
   6 -12  -3    9.47    1.11
  -6  12  -3    4.44    2.60
  -6  12  -3    9.69    1.44
  -6  12  -3   10.11    1.08
   6 -12  -3   10.42    1.25
  -6  12  -3    8.62    1.76
  -6 -12  -4    1.38    0.99
   6  12  -4    2.05    0.62
   6  12  -4    1.65    1.28
  -6 -12  -4   -1.15    1.72
  -6 -12  -4    2.39    1.11
   6  12  -4    0.56    0.99
  -6 -12  -4    0.84    0.78
  -6  12  -4    1.62    0.91
  -6  12  -4    2.29    0.94
  -6  12  -4    1.52    0.80
  -6  12  -4   -0.33    1.11
  -6  12  -4    1.30    0.70
   6 -12  -4    1.97    0.84
  -6  12  -4    6.49    2.38
   6 -12  -4    0.84    0.69
  -6  12  -4    1.25    1.66
   6  12  -5    7.71    0.93
  -6 -12  -5    4.58    1.63
  -6 -12  -5    7.99    1.24
  -6 -12  -5    9.11    1.12
  -6  12  -5    9.29    1.25
  -6  12  -5    8.74    0.97
  -6  12  -5    5.47    1.04
  -6  12  -5    7.66    1.67
   6 -12  -5    4.98    0.96
   6 -12  -5    9.10    1.30
  -6  12  -5    8.02    1.11
  -6 -12  -6    1.48    0.84
  -6 -12  -6    2.32    0.84
  -6  12  -6    0.94    0.56
   7  12   0   13.98    1.21
  -7  12   0   14.07    1.40
   7 -12   0   16.13    1.25
  -7  12   0   17.19    1.46
  -7 -12   0   16.24    1.49
  -7  12   0   17.30    1.41
   7  12   0   17.65    1.71
   7 -12   0   16.04    1.29
   7  12   0   15.54    1.92
   7  12  -1    5.78    1.75
  -7 -12  -1   12.22    1.61
  -7  12   1   10.75    1.15
   7 -12   1    8.84    1.02
   7 -12   1   11.00    1.16
   7  12  -1   10.60    1.29
   7 -12   1   13.07    1.85
  -7  12   1   11.44    1.38
  -7  12   1   11.14    1.43
   7  12  -1    7.88    0.97
  -7  12  -1   11.36    1.22
  -7  12  -1   10.26    1.47
   7  12   1   10.13    1.29
  -7  12  -1   10.86    1.41
   7 -12  -1   10.19    1.15
  -7 -12   1    9.95    1.24
   7  12   1    9.88    1.53
   7  12   1   12.26    1.56
   7 -12  -1    9.21    1.07
  -7  12  -1    9.08    0.96
   7 -12   2   14.00    1.89
   7 -12   2   18.55    1.58
  -7 -12  -2   17.52    1.38
   7 -12   2   15.59    1.30
  -7 -12  -2   16.08    2.00
   7  12  -2   14.88    1.21
  -7  12  -2   17.20    2.02
   7  12   2   12.98    1.35
   7  12   2   14.32    1.65
   7 -12  -2   17.03    1.34
  -7  12  -2   16.60    1.42
  -7  12  -2   13.67    1.42
   7 -12  -2   15.82    1.22
  -7  12  -2   15.32    1.68
   7 -12   3    5.16    1.37
  -7 -12  -3    5.95    1.56
  -7 -12  -3    5.41    1.15
   7  12  -3    5.60    0.89
  -7 -12  -3    5.39    1.64
   7  12  -3    4.84    1.22
   7  12  -3    5.59    1.08
  -7  12  -3    4.75    1.17
  -7  12  -3    7.31    1.68
  -7  12  -3    5.96    2.62
  -7  12  -3    5.12    1.14
   7 -12  -3    6.10    0.96
   7  12   3    4.83    1.10
  -7  12  -3    5.58    1.04
   7 -12  -3    7.26    1.24
  -7 -12  -4   11.75    3.12
  -7 -12  -4   15.61    1.69
   7  12  -4   16.03    1.24
  -7 -12  -4   18.32    1.84
  -7  12  -4   17.53    1.66
  -7  12  -4   20.66    3.33
   7 -12  -4   15.54    1.32
  -7  12  -4   21.02    1.90
  -7  12  -4   18.18    1.54
  -7 -12  -5    4.37    1.05
  -7 -12  -5    7.00    1.21
   7  12  -5    6.88    0.93
  -7  12  -5    1.10    2.02
   7 -12  -5    3.55    0.95
  -7  12  -5    4.44    0.91
   7 -12  -5    6.49    1.19
  -7  12  -5    7.34    1.05
  -7  12  -6   -0.21    0.77
   8 -12   0   12.61    1.28
   8  12   0    9.11    1.32
  -8  12   0   12.68    1.39
  -8  12   0   12.97    1.52
   8  12   0    8.48    1.74
  -8 -12   0    9.25    1.30
   8  12   0    7.25    1.00
   8 -12   0   11.52    1.13
  -8  12   0   10.14    1.43
  -8  12   1    6.45    0.95
   8  12  -1    7.68    1.26
   8 -12   1    6.47    1.07
   8 -12   1    8.21    1.72
   8  12  -1    6.59    1.01
  -8 -12  -1    5.93    0.74
   8 -12   1    5.76    1.30
  -8  12   1    6.83    1.34
   8  12   1    7.99    1.56
   8 -12  -1    6.99    1.03
  -8  12  -1    6.44    0.60
   8  12   1    5.62    1.02
  -8  12  -1    5.06    1.64
  -8 -12   1    6.51    0.98
  -8  12  -1    7.96    1.11
   8 -12  -1    5.60    0.97
   8  12   1    6.24    1.29
   8 -12   2    1.88    1.11
  -8 -12  -2    3.66    0.87
   8 -12   2    4.38    0.94
   8  12  -2    3.84    1.05
   8  12  -2    2.75    0.77
   8 -12   2    1.00    1.10
   8  12  -2    2.25    0.96
   8 -12  -2    2.97    0.74
   8 -12  -2    3.02    1.17
   8  12   2    2.40    1.06
  -8  12  -2    1.71    1.04
  -8 -12  -3   10.27    1.76
  -8 -12  -3    7.95    1.23
   8 -12   3    7.04    1.74
  -8 -12  -3    7.51    1.57
   8  12  -3    8.63    1.28
   8  12  -3    9.14    1.14
   8  12  -3    9.96    1.68
   8 -12  -3    9.71    1.18
  -8  12  -3    9.67    1.42
  -8  12  -3    7.54    1.46
  -8  12  -3    6.74    1.06
  -8  12  -3    7.35    1.46
   8  12   3    8.71    1.97
   8 -12  -3    8.37    1.06
  -8 -12  -4   -0.67    0.94
  -8 -12  -4   -0.57    1.04
  -8 -12  -4   -0.78    1.41
   8 -12  -4    0.30    0.81
  -8  12  -4    1.27    0.75
  -8  12  -4    0.52    1.24
  -8  12  -4    1.39    0.92
  -8  12  -4    1.17    0.77
  -8 -12  -5    3.54    1.02
  -8 -12  -5    0.37    2.93
  -8  12  -5    1.25    2.75
   8 -12  -5    1.84    1.16
  -8  12  -5    1.44    0.69
  -8  12  -5    0.17    0.64
  -9  12   0    5.81    1.12
   9 -12   0    7.45    1.78
   9  12   0    9.48    1.60
  -9  12   0    8.20    1.38
   9  12   0    7.74    1.83
   9 -12   0    8.64    1.21
  -9  12   0    9.85    1.42
   9 -12   0    8.08    1.08
   9  12   0    8.54    1.19
  -9 -12   0    7.75    1.26
   9  12  -1   -0.07    2.53
   9  12  -1    0.57    0.97
  -9 -12  -1    0.27    0.91
   9 -12   1    0.60    1.25
   9 -12   1    1.85    0.92
  -9  12   1    1.41    0.64
   9  12  -1    0.13    0.67
  -9  12  -1    0.79    0.85
   9  12   1    2.80    1.51
  -9  12  -1    0.77    0.81
  -9  12  -1    0.02    0.92
   9  12   1   -0.43    0.74
   9  12   1    0.38    1.25
  -9 -12   1    1.62    0.65
   9 -12  -1    2.06    0.81
   9 -12  -1    1.52    0.71
   9  12  -2    6.66    1.81
   9 -12   2    6.68    2.54
   9 -12   2    4.61    0.98
   9  12  -2    3.93    0.81
  -9 -12  -2    7.45    1.46
   9  12  -2    4.95    1.43
   9 -12  -2    6.24    1.05
  -9  12  -2    6.22    1.34
   9 -12  -2    5.54    1.00
   9  12   2    7.12    1.14
  -9  12  -2    4.51    1.04
  -9  12  -2    5.58    1.13
   9 -12   3    5.21    1.33
  -9 -12  -3    6.46    1.74
  -9 -12  -3    5.15    1.03
   9  12  -3    6.17    0.99
   9 -12  -3    8.33    1.62
  -9  12  -3    5.52    1.15
  -9  12  -3    3.06    1.38
   9 -12  -3    7.13    1.01
   9  12   3    4.85    1.81
  -9  12  -3    7.85    1.68
  -9  12  -3    6.59    1.11
  -9 -12  -4    3.23    1.39
   9  12  -4    3.01    0.78
  -9  12  -4    2.82    0.80
  -9  12  -4    1.89    0.82
   9 -12  -4    3.86    1.70
  -9  12  -4    1.42    1.40
   9 -12  -4    1.43    0.74
  -9  12  -5   -0.17    0.52
  10 -12   0    0.05    0.62
  10 -12   0    0.10    1.83
 -10  12   0   -0.39    0.77
 -10  12   0    1.61    0.89
  10  12   0    2.33    1.48
  10 -12   0    0.80    0.79
  10  12   0    2.85    1.86
  10  12   0   -0.36    0.68
 -10 -12   0    0.85    0.87
  10 -12   1    4.61    1.07
  10  12  -1    2.75    1.20
 -10 -12  -1    4.46    1.13
  10 -12   1    5.54    1.73
  10 -12   1    4.29    0.93
  10  12  -1    3.30    0.84
 -10  12  -1    3.75    1.11
  10  12   1    5.35    1.10
 -10  12  -1    3.31    1.05
  10 -12  -1    3.16    0.83
  10  12   1    3.96    1.50
  10 -12  -1    4.48    0.95
  10 -12   2   14.50    1.28
  10  12  -2   15.27    1.36
  10 -12   2   13.85    1.95
 -10 -12  -2   14.93    1.78
 -10  12  -2   14.96    1.56
 -10  12  -2   10.56    1.37
  10  12   2   13.02    1.71
  10 -12  -2   16.07    1.39
  10 -12  -2   17.47    1.48
 -10  12  -2   12.76    1.63
  10  12   2   15.38    2.09
  10 -12   3    0.91    1.36
 -10 -12  -3    0.75    1.06
  10  12  -3   -0.05    0.64
 -10  12  -3    0.66    1.03
  10 -12  -3    0.68    0.73
 -10  12  -3    0.19    1.30
  10 -12  -3    1.04    0.78
  10  12   3   -0.43    1.57
 -10  12  -3   -0.17    0.62
 -10 -12  -4    3.34    1.22
 -10  12  -4    6.40    1.28
 -10  12  -4    7.32    1.68
  10 -12  -4    8.09    1.03
  11 -12   0    3.85    1.25
 -11  12   0    2.22    0.69
 -11 -12   0    2.81    0.98
  11  12   0    1.96    0.89
 -11  12   0    2.16    1.73
  11  12   0    3.84    2.12
  11 -12   0    3.71    1.04
  11 -12   0    4.25    2.61
  11 -12   1   10.31    1.47
  11  12  -1    8.95    1.22
  11 -12   1   11.78    1.26
 -11 -12  -1   11.12    1.93
  11 -12   1    9.08    2.50
  11 -12  -1    9.04    1.64
 -11  12  -1    8.12    1.39
 -11  12  -1    9.35    1.55
  11  12   1    7.93    1.30
  11 -12  -1   10.80    1.27
  11  12  -2    5.49    0.93
  11 -12   2    4.07    1.63
 -11 -12  -2    3.09    1.04
  11 -12  -2    4.98    0.94
 -11  12  -2    4.92    1.09
  11 -12  -2    4.70    0.94
 -11  12  -2    2.74    0.84
  11  12   2    3.65    1.42
 -11 -12  -3    0.69    1.05
  11  12  -3    1.08    0.78
 -11  12  -3    0.00    0.93
  11 -12  -3    0.98    1.01
  11 -12  -3    1.55    0.75
 -11  12  -3    0.65    0.74
 -11 -12  -4    0.05    0.94
 -11  12  -4    3.83    1.90
  12  12   0    6.49    1.16
  12 -12   0    8.73    1.28
  12 -12   0    5.97    0.92
  12 -12   1    3.53    0.84
  12  12  -1    3.72    0.93
 -12 -12  -1    2.29    0.77
 -12  12  -1    2.64    1.02
  12 -12  -1    2.78    0.75
 -12  12  -1    4.69    1.00
  12 -12  -1    4.61    0.97
 -12 -12  -2   -0.70    0.82
  12  12  -2    0.93    0.93
  12 -12  -2    1.61    1.00
 -12  12  -2    0.35    0.87
  12 -12  -2    0.21    0.93
 -12 -12  -3    1.51    0.82
 -12  12  -3    1.20    0.76
  12 -12  -3    1.08    0.87
 -12  12  -3    0.69    0.83
  13 -12   0    0.53    0.60
  13  12   0    0.04    0.62
  13 -12  -1    3.11    0.67
   0 -13   0   -0.48    0.42
   0 -13   0   -0.13    0.48
   0  13   0   -0.56    0.86
   0  13   0    0.59    0.58
   0  13   0   -0.12    0.40
   0  13   0   -0.55    0.60
   0  13   0   -0.04    0.59
   0  13  -1   58.83    2.68
   0  13   1   63.98    2.76
   0  13   1   58.09    2.50
   0 -13  -1   58.34    2.28
   0  13  -1   60.48    2.42
   0  13  -1   63.93    3.23
   0  13  -1   59.72    2.31
   0  13   1   61.81    2.38
   0  13   1   60.15    2.49
   0 -13  -1   58.99    2.38
   0  13  -1   61.27    2.59
   0 -13  -1   59.99    2.28
   0  13  -2    1.87    0.54
   0  13  -2    2.19    0.71
   0  13  -2    0.95    0.76
   0  13   2    2.68    0.88
   0  13   2    2.27    0.82
   0  13   2    1.56    0.36
   0  13  -2    1.18    0.64
   0 -13  -2    1.78    0.55
   0  13  -2    1.99    0.89
   0 -13  -2    0.98    0.72
   0 -13   2    2.87    0.60
   0 -13  -2    2.32    0.61
   0  13  -2    2.86    0.65
   0  13  -3   23.27    2.08
   0  13  -3   20.10    1.51
   0  13  -3   20.40    1.32
   0 -13  -3   19.71    1.74
   0 -13  -3   19.59    1.43
   0  13  -3   20.66    1.23
   0  13  -3   19.72    1.75
   0 -13  -3   21.32    1.39
   0  13  -3   19.43    1.60
   0 -13  -4  142.88    5.12
   0 -13   4  143.58    4.26
   0  13  -4  137.70    4.49
   0  13  -4  130.43    5.08
   0  13  -4  135.69    4.72
   0 -13  -4  129.93    4.71
   0  13  -4  142.82    5.48
   0  13  -5   14.26    1.27
   0 -13  -5   13.80    1.46
   0  13  -5   18.91    2.25
   0  13  -5   19.57    2.50
   0 -13  -5   14.64    1.55
   0  13  -5   16.63    1.53
   0  13  -5   16.15    1.29
   0 -13  -6    2.66    0.91
   0  13  -6    2.98    0.90
   0  13  -6    2.12    0.71
   0  13  -6    3.96    0.84
   0 -13  -6    1.33    0.81
  -1  13   0    4.37    0.86
  -1  13   0    2.84    0.56
  -1 -13   0    2.25    0.82
   1  13   0    2.46    0.78
   1 -13   0    2.33    0.60
   1 -13   0    2.52    0.62
  -1  13   0    2.08    0.69
   1  13   0    2.19    0.76
  -1  13   0    2.56    0.69
  -1 -13   0    3.76    0.80
  -1  13   0    2.15    0.79
  -1  13   0    2.98    0.75
   1  13   0    2.17    0.69
   1  13   0    2.15    1.10
   1  13   0    2.89    0.68
   1  13   0    2.70    0.64
  -1  13   0    0.70    0.79
  -1  13   1   57.38    2.43
   1  13  -1   55.68    2.26
  -1  13   1   60.87    2.24
  -1 -13  -1   61.11    2.32
  -1  13   1   56.14    2.58
   1  13  -1   60.71    2.15
   1  13  -1   59.24    2.59
   1  13  -1   60.47    2.40
  -1  13   1   57.56    2.48
  -1 -13  -1   59.73    2.38
   1 -13   1   56.91    2.16
  -1 -13  -1   58.60    2.37
  -1 -13  -1   58.33    2.73
   1 -13   1   58.91    2.21
   1  13  -1   60.21    2.58
   1  13   1   57.54    2.11
   1  13   1   57.33    2.51
   1 -13  -1   60.41    2.24
   1 -13  -1   59.29    2.41
   1  13   1   59.67    2.44
  -1  13  -1   59.02    2.43
   1 -13  -1   56.77    2.24
  -1  13  -1   58.38    2.29
   1  13   1   58.87    2.72
   1  13   1   59.55    2.48
  -1  13  -1   58.10    2.38
  -1  13  -1   61.32    2.17
  -1  13  -1   56.51    2.77
  -1  13  -1   55.88    2.56
   1  13  -2    0.38    0.92
   1  13  -2    0.74    0.65
  -1 -13  -2    0.62    0.54
   1  13  -2    0.92    0.54
   1  13  -2    1.08    0.45
  -1  13   2    0.92    0.72
  -1  13   2    0.42    0.74
   1  13  -2    1.18    0.59
  -1 -13  -2    0.95    0.61
  -1 -13  -2    1.60    1.66
   1  13  -2    0.42    0.70
  -1 -13  -2    0.79    0.60
   1  13   2    0.86    0.59
  -1  13  -2    1.82    0.69
   1 -13  -2    0.69    0.57
  -1  13  -2    1.39    0.51
  -1  13  -2    1.00    0.59
  -1 -13   2    2.30    0.57
  -1  13  -2    1.21    0.97
  -1  13  -2    0.21    1.60
  -1  13  -2    2.26    0.80
   1  13   2    2.29    0.77
  -1  13  -2    1.09    0.77
   1 -13  -2    0.84    0.65
  -1  13  -2    1.52    0.56
   1 -13  -2    1.10    0.51
   1  13  -3    5.44    1.18
   1  13  -3    5.86    1.53
  -1 -13  -3    6.39    1.18
   1  13  -3    5.69    1.04
   1  13  -3    4.85    0.76
  -1 -13  -3    5.95    0.96
   1  13  -3    6.47    0.90
  -1 -13  -3    6.49    0.95
  -1  13  -3    4.41    1.16
  -1  13  -3    4.95    0.72
  -1 -13   3    4.84    0.82
   1 -13  -3    5.01    0.85
  -1  13  -3    5.57    1.13
  -1  13  -3    6.27    1.17
  -1  13  -3    7.51    1.34
  -1  13  -3    7.19    1.06
  -1  13  -3    5.38    0.85
   1 -13  -3    5.66    0.93
   1  13  -4   32.81    2.45
   1  13  -4   30.86    2.40
  -1 -13  -4   31.49    1.90
   1  13  -4   29.53    1.62
   1  13  -4   36.06    2.02
  -1 -13  -4   28.54    2.83
   1  13  -4   34.50    2.28
  -1  13  -4   32.38    2.33
   1 -13  -4   34.27    1.90
  -1 -13   4   32.48    1.04
  -1  13  -4   31.34    2.67
  -1  13  -4   32.72    2.87
  -1  13  -4   35.16    1.75
   1 -13  -4   33.01    2.20
  -1 -13  -5    7.89    1.25
  -1 -13  -5    6.13    1.12
   1  13  -5    6.50    0.98
   1  13  -5    7.24    0.99
   1  13  -5    8.85    1.98
   1  13  -5    8.74    1.27
   1  13  -5    4.52    1.37
  -1  13  -5    7.83    1.86
   1 -13  -5    7.18    1.13
  -1  13  -5    7.64    1.06
   1 -13  -5    6.84    1.16
  -1  13  -5    9.24    1.29
  -1  13  -5    7.34    0.99
   1  13  -6    0.54    0.57
  -1 -13  -6   -1.56    0.68
  -1 -13  -6    0.56    0.69
   1  13  -6    0.57    0.62
   1  13  -6    1.01    0.89
   1 -13  -6   -0.01    0.75
  -1  13  -6   -0.31    0.67
   1 -13  -6    0.11    0.73
  -1  13  -6    0.72    0.59
  -1  13  -6    0.47    0.62
  -2  13   0   -0.08    0.44
   2 -13   0    0.10    0.44
  -2 -13   0    0.23    0.66
  -2 -13   0    0.03    0.47
   2 -13   0   -0.23    0.69
   2  13   0    0.41    1.08
  -2  13   0   -0.32    0.56
   2  13   0    0.01    0.46
  -2  13   0   -0.10    0.50
   2  13   0   -0.12    0.53
  -2 -13   0    0.36    0.59
   2  13   0    0.19    0.66
   2  13   0   -0.84    0.57
  -2  13   0    0.34    0.79
  -2  13   0    0.00    0.63
  -2  13   0    0.50    0.65
  -2 -13   0    0.23    0.70
   2  13  -1    5.68    0.87
   2  13  -1    6.07    0.77
  -2 -13  -1    7.51    0.88
  -2 -13  -1    5.51    0.85
  -2  13   1    7.40    1.35
  -2 -13  -1    7.57    1.19
   2  13  -1    7.38    1.15
   2  13  -1    6.93    0.92
  -2 -13  -1    6.05    0.87
   2 -13   1    7.48    0.84
  -2  13   1    5.26    0.77
  -2  13   1    7.64    1.02
  -2  13   1    6.79    1.10
  -2  13  -1    5.67    0.99
   2  13   1    6.76    1.13
  -2  13  -1    8.38    1.35
  -2  13  -1    8.51    0.84
   2  13   1    6.35    1.28
   2 -13  -1    7.68    1.08
   2 -13  -1    6.98    0.83
  -2  13  -1    7.26    1.05
   2  13   1    6.76    1.02
  -2  13  -1    7.28    0.94
  -2 -13   1    8.04    1.10
  -2  13  -1    6.27    0.93
   2  13   1    8.07    1.33
   2  13   1    6.24    1.02
  -2  13  -1    7.03    1.01
   2 -13  -1    6.02    0.81
  -2 -13  -2    7.69    1.03
   2  13  -2    6.92    0.81
  -2 -13  -2    7.15    1.71
   2  13  -2    7.92    1.17
   2  13  -2    7.88    0.95
   2  13  -2    7.14    0.97
  -2  13   2    6.36    1.21
  -2 -13  -2    5.90    1.04
   2  13  -2    8.00    1.04
   2  13  -2    7.71    1.30
  -2 -13   2    5.97    1.33
  -2  13  -2    8.13    1.74
  -2  13  -2    6.06    1.06
   2 -13  -2    7.78    0.92
  -2  13  -2    7.44    1.33
  -2  13  -2    8.75    1.15
  -2  13  -2    6.47    1.09
  -2  13  -2    6.62    1.32
   2  13   2    7.86    1.00
   2 -13  -2    7.88    1.13
   2 -13  -2    7.68    0.97
  -2  13  -2    7.98    0.85
   2  13   2    8.24    1.33
   2  13  -3   11.98    1.30
   2  13  -3    6.51    1.86
   2  13  -3    9.34    1.17
   2  13  -3   11.81    1.11
   2  13  -3   10.00    1.39
  -2 -13  -3    9.51    1.29
   2  13  -3    9.57    1.20
  -2 -13  -3   10.48    1.19
  -2 -13  -3   12.45    1.46
   2 -13  -3   11.17    1.18
  -2  13  -3   10.35    1.65
  -2  13  -3   11.74    1.30
  -2  13  -3   11.31    1.01
   2 -13  -3   10.33    1.12
  -2 -13   3   11.70    1.05
  -2  13  -3    8.71    1.09
  -2  13  -3   12.24    1.56
  -2  13  -3   14.70    1.43
  -2  13  -3   11.46    1.59
  -2 -13  -4    2.69    1.00
   2  13  -4    3.89    0.76
  -2 -13  -4    1.78    1.29
   2  13  -4    4.56    0.96
   2  13  -4    4.21    1.30
  -2 -13  -4    3.47    0.97
   2  13  -4    5.57    1.16
   2  13  -4    5.42    1.09
  -2  13  -4    4.74    1.50
  -2  13  -4    4.79    1.41
  -2  13  -4    4.78    1.09
   2 -13  -4    3.16    0.81
  -2  13  -4    3.63    1.57
  -2  13  -4    3.15    0.92
  -2  13  -4    5.16    0.90
  -2  13  -4    4.39    0.85
   2  13  -5    2.66    0.75
   2  13  -5    4.37    1.11
  -2 -13  -5    3.11    0.98
   2  13  -5    3.36    0.75
  -2 -13  -5    2.37    0.87
   2 -13  -5    3.06    0.88
  -2  13  -5    2.47    0.71
  -2  13  -5    2.74    0.85
  -2  13  -5    2.26    0.79
   2 -13  -5    5.20    1.06
   2  13  -6    1.01    0.71
   2  13  -6    1.25    0.61
  -2 -13  -6    1.76    0.76
  -2 -13  -6    0.53    0.79
   2 -13  -6    0.10    0.75
   2 -13  -6    0.06    0.82
  -2  13  -6    0.64    0.58
  -2  13  -6    0.52    0.71
  -2  13  -6    0.31    0.59
   3  13   0   -0.31    0.38
  -3 -13   0   -0.11    0.41
  -3  13   0    0.33    0.62
  -3  13   0   -0.51    0.72
  -3  13   0    0.03    0.42
   3  13   0    0.22    0.49
  -3  13   0   -0.28    0.86
   3  13   0   -0.49    0.56
   3  13   0   -0.26    0.71
   3 -13   0    0.35    0.49
   3  13   0   -1.57    1.22
  -3  13   0   -0.53    0.50
   3  13   0    0.39    0.69
   3 -13   0   -0.18    0.53
  -3 -13   0   -1.65    0.66
  -3 -13  -1   11.67    1.05
   3 -13   1   11.53    0.96
   3  13  -1   11.36    1.38
   3  13  -1   11.91    1.17
  -3 -13  -1   13.82    1.56
  -3  13   1   13.68    1.30
   3  13  -1   11.98    1.22
  -3  13   1   12.86    0.73
  -3 -13  -1   12.54    1.09
  -3  13   1   14.12    1.24
   3 -13   1   11.16    1.01
   3  13  -1   13.43    1.42
  -3 -13  -1   13.01    1.10
   3  13  -1   10.82    0.87
  -3  13  -1   11.67    1.26
   3  13   1   17.76    1.71
  -3  13  -1   12.76    1.10
  -3  13  -1   11.97    1.42
  -3  13  -1   13.97    0.98
   3  13   1   10.39    0.97
  -3  13  -1   13.10    1.23
   3  13   1   13.49    1.30
   3  13   1   11.74    1.36
  -3  13  -1   11.13    1.20
   3 -13  -1   12.10    1.03
   3 -13  -1   13.03    0.97
   3  13   1   15.62    1.46
  -3 -13   1   13.04    1.33
   3  13   1   11.00    1.26
  -3  13  -1   10.94    1.49
  -3  13   2    2.69    0.75
  -3 -13  -2    1.36    0.71
   3  13  -2    1.86    1.04
  -3 -13  -2    2.21    0.68
   3 -13   2    2.04    0.75
   3  13  -2    0.95    0.65
   3  13  -2    2.82    0.86
  -3  13   2    2.60    0.89
  -3 -13  -2    2.38    0.71
   3  13  -2    2.41    0.57
   3  13  -2    2.25    0.85
  -3 -13  -2    1.51    1.11
  -3  13  -2    0.79    0.84
  -3 -13   2    3.00    0.81
  -3  13  -2    2.01    0.69
   3 -13  -2    2.74    0.66
   3 -13  -2    2.73    1.04
   3  13   2    2.63    0.75
  -3  13  -2    2.56    0.83
   3  13   2    1.93    1.20
  -3  13  -2    3.22    0.64
  -3  13  -2    1.40    0.77
   3 -13  -2    2.34    0.90
  -3  13  -2    2.68    1.34
  -3  13  -2    1.92    1.05
   3 -13   3   57.52    2.25
   3  13  -3   53.34    2.52
   3  13  -3   57.94    2.52
  -3 -13  -3   54.68    2.51
   3  13  -3   51.32    2.68
   3  13  -3   57.11    2.37
   3  13  -3   58.13    2.26
   3 -13  -3   54.17    2.31
  -3  13  -3   57.38    2.58
  -3  13  -3   55.53    3.81
  -3  13  -3   59.47    3.18
  -3  13  -3   58.68    2.56
  -3  13  -3   56.49    2.90
  -3  13  -3   57.78    2.30
  -3 -13   3   58.54    2.07
   3 -13  -3   55.30    2.38
  -3  13  -3   56.54    2.33
   3  13   3   51.93    1.79
   3  13  -4    8.40    1.05
   3  13  -4    7.44    1.03
   3  13  -4    7.25    1.33
  -3 -13  -4    8.17    1.21
  -3 -13  -4    7.27    1.36
  -3 -13  -4    9.15    1.26
   3  13  -4    7.48    1.42
  -3  13  -4    5.10    1.56
  -3  13  -4    6.33    1.05
  -3  13  -4    7.52    1.03
  -3  13  -4    7.23    1.54
   3 -13  -4    8.77    1.19
   3 -13  -4    6.92    1.02
  -3  13  -4    9.30    1.68
  -3  13  -4   11.44    1.43
  -3  13  -4    8.51    1.35
  -3 -13  -5    9.17    1.30
  -3 -13  -5   10.97    1.27
   3  13  -5   11.46    1.21
  -3 -13  -5    6.23    1.84
   3  13  -5   11.28    1.12
  -3  13  -5   10.22    1.22
  -3  13  -5   10.49    1.29
   3 -13  -5    9.25    1.28
  -3  13  -5    8.15    1.52
   3 -13  -5    9.22    1.18
  -3  13  -5   13.51    2.59
  -3  13  -5   11.29    1.20
  -3 -13  -6    0.31    0.84
   3  13  -6    0.51    0.71
  -3 -13  -6   -0.51    0.65
  -3  13  -6   -0.47    0.49
   3 -13  -6    1.52    1.22
  -3  13  -6    0.11    0.65
  -3  13  -6    0.21    0.77
   3 -13  -6    0.11    0.79
  -4 -13   0   22.39    1.56
   4  13   0   20.39    1.54
   4 -13   0   23.31    1.31
   4  13   0   18.48    1.53
   4  13   0   18.27    1.75
  -4  13   0   21.59    1.38
   4  13   0   21.94    1.64
  -4  13   0   21.59    1.51
  -4 -13   0   20.38    1.22
   4  13   0   27.45    2.92
   4 -13   0   20.95    1.26
  -4  13   0   19.43    1.88
  -4  13   0   21.43    1.24
  -4  13   0   21.78    1.56
   4  13  -1   28.64    1.43
   4  13  -1   27.55    3.40
   4 -13   1   27.09    1.45
  -4 -13  -1   26.80    1.85
  -4 -13  -1   28.40    1.57
  -4  13   1   27.59    1.64
  -4 -13  -1   27.41    1.53
   4  13  -1   31.40    1.89
   4 -13   1   28.16    1.48
   4  13   1   27.26    1.47
  -4  13  -1   30.94    2.06
   4 -13  -1   28.82    1.44
  -4  13  -1   27.87    1.66
  -4  13  -1   29.02    2.00
   4  13   1   28.00    1.84
  -4 -13   1   29.17    1.66
  -4  13  -1   29.72    1.99
  -4  13  -1   28.08    1.74
   4  13   1   28.14    1.63
  -4  13  -1   27.53    1.77
   4 -13  -1   23.68    2.16
   4 -13   2  111.73    4.19
  -4 -13  -2  114.16    3.88
   4 -13   2  108.35    3.58
   4  13  -2  114.46    3.96
  -4 -13  -2  114.37    4.05
   4  13  -2  111.72    3.64
   4  13  -2  116.25    4.22
  -4  13   2  109.43    4.12
  -4  13  -2  100.68    5.43
  -4  13  -2  111.58    4.36
  -4  13  -2  115.54    4.22
   4 -13  -2  115.19    3.84
   4 -13  -2  120.48    3.96
   4  13   2  112.82    4.13
  -4  13  -2  118.86    4.63
  -4  13  -2  109.55    3.71
  -4  13  -2  119.72    4.13
  -4  13  -2  116.73    3.72
   4  13   2  111.80    4.40
  -4  13  -2  116.46    4.00
   4  13  -3   20.68    1.30
  -4 -13  -3   20.23    1.56
   4  13  -3   17.24    1.66
   4 -13   3   20.12    1.47
  -4 -13  -3   22.09    1.56
   4  13  -3   21.62    1.58
  -4 -13  -3   19.81    2.47
  -4  13  -3   19.89    2.52
  -4  13  -3   22.06    2.34
  -4  13  -3   19.81    2.00
   4 -13  -3   18.27    1.44
  -4  13  -3   18.99    1.48
  -4  13  -3   19.20    1.36
  -4  13  -3   18.19    2.73
  -4  13  -3   19.96    1.63
  -4  13  -3   17.37    1.33
   4 -13  -3   20.94    1.37
  -4 -13  -4    8.38    1.52
   4  13  -4    7.50    1.32
  -4 -13  -4    8.11    1.13
   4  13  -4    5.27    1.27
   4  13  -4    7.76    1.00
  -4 -13  -4    7.23    1.26
  -4  13  -4    8.50    1.33
  -4  13  -4    6.29    0.91
  -4  13  -4   11.51    2.30
  -4  13  -4   10.29    1.22
   4 -13  -4    9.29    1.19
  -4  13  -4    9.49    1.71
  -4  13  -4    7.31    1.96
   4 -13  -4    6.31    1.01
  -4  13  -4    8.77    1.25
  -4 -13  -5    0.73    0.84
   4  13  -5    1.75    0.63
  -4 -13  -5    0.63    1.00
  -4  13  -5    0.20    0.65
  -4  13  -5    0.18    0.90
  -4  13  -5   -0.96    1.83
   4 -13  -5    0.76    0.93
  -4  13  -5    0.22    0.75
   4 -13  -5    0.73    0.69
   4  13  -6   -0.95    0.94
  -4 -13  -6    0.11    1.34
  -4 -13  -6   -0.59    1.06
  -4  13  -6    0.44    0.80
   4 -13  -6   -0.14    0.87
   5 -13   0    1.17    0.56
  -5  13   0    1.36    0.77
  -5  13   0    0.49    0.67
   5  13   0    1.45    0.75
   5  13   0    1.77    0.60
   5 -13   0    1.28    0.53
   5  13   0    0.45    0.77
  -5 -13   0    2.56    0.87
   5  13   0    1.56    0.70
  -5  13   0    1.98    0.82
  -5  13   0    0.67    0.44
   5  13  -1   48.69    2.80
   5 -13   1   47.81    2.08
  -5 -13  -1   50.20    2.17
   5  13  -1   50.47    2.46
  -5  13   1   45.96    2.31
   5  13  -1   50.15    2.80
   5 -13   1   51.51    2.10
  -5  13   1   49.80    2.89
  -5 -13  -1   50.70    2.67
  -5  13  -1   43.87    2.79
   5  13   1   47.84    2.48
   5  13   1   47.44    2.04
   5  13   1   46.33    2.28
  -5  13  -1   47.77    2.48
  -5 -13   1   46.91    2.30
   5  13   1   50.26    2.59
   5 -13  -1   40.69    2.59
  -5  13  -1   50.60    2.20
  -5 -13  -2   12.74    1.31
   5 -13   2    9.88    1.37
  -5  13   2   15.11    1.19
  -5 -13  -2   12.93    1.21
  -5 -13  -2   12.22    1.38
  -5  13   2   14.84    1.61
   5  13  -2   11.98    1.94
  -5 -13  -2   14.89    1.86
   5  13  -2   16.43    1.57
   5  13  -2   13.40    1.37
   5 -13   2   12.73    1.16
  -5  13  -2   15.67    2.04
  -5  13  -2   11.53    1.16
  -5  13  -2   13.12    1.47
   5  13   2   13.71    2.62
  -5 -13   2   14.68    1.17
  -5  13  -2   13.47    1.49
   5 -13  -2   13.95    1.20
  -5  13  -2   13.53    1.79
   5  13   2   14.31    1.51
  -5  13  -2   13.72    1.38
  -5  13  -2   10.02    1.64
  -5 -13  -3   45.32    2.29
   5 -13   3   45.63    2.55
  -5 -13  -3   46.78    3.03
   5  13  -3   45.22    2.59
   5  13  -3   40.82    1.92
   5  13  -3   43.48    2.25
  -5 -13  -3   44.70    2.20
  -5 -13  -3   42.22    2.41
  -5  13  -3   45.75    2.40
  -5  13  -3   43.65    3.33
  -5  13  -3   42.02    2.22
  -5  13  -3   44.07    2.51
  -5  13  -3   44.52    2.01
   5 -13  -3   40.44    1.97
  -5  13  -3   42.12    2.01
   5  13   3   45.44    2.14
   5 -13  -3   44.24    2.13
  -5  13  -3   45.56    3.06
   5  13  -4   12.07    1.10
  -5 -13  -4    9.37    1.41
  -5 -13  -4   11.09    1.42
  -5 -13  -4    9.55    2.28
   5  13  -4    8.75    1.53
  -5 -13  -4   10.60    1.57
   5  13  -4   10.02    1.27
  -5  13  -4   11.96    1.53
  -5  13  -4   11.81    2.53
  -5  13  -4    9.90    1.28
  -5  13  -4    8.84    2.55
  -5  13  -4   13.76    1.39
   5 -13  -4   11.89    1.29
  -5  13  -4    9.76    1.10
   5 -13  -4   10.21    1.17
  -5  13  -4   11.71    1.79
  -5  13  -4   13.40    2.43
  -5 -13  -5    5.63    1.12
  -5 -13  -5    4.00    1.41
   5  13  -5    8.98    1.46
  -5 -13  -5    5.35    1.08
  -5  13  -5    7.35    1.73
   5 -13  -5    4.70    1.08
  -5  13  -5    5.22    1.01
  -5  13  -5    5.48    1.07
  -5  13  -5    6.18    0.91
   5 -13  -5    5.96    1.09
  -5  13  -5    8.44    1.23
  -5 -13  -6    2.64    0.78
  -5 -13  -6    1.59    0.83
  -5  13  -6    2.58    0.68
   6 -13   0   12.85    1.12
  -6 -13   0   16.31    1.54
  -6  13   0   15.58    1.34
   6  13   0   16.47    1.90
   6  13   0   13.77    1.15
  -6  13   0   14.57    1.45
  -6  13   0   12.89    0.63
  -6  13   0   12.14    1.40
   6  13   0   13.72    1.44
   6 -13   0   14.53    1.18
  -6 -13  -1   15.20    1.80
  -6  13   1   16.55    1.40
  -6  13   1   16.88    1.51
   6 -13   1   17.95    1.33
  -6 -13  -1   16.97    1.28
  -6  13   1   18.07    1.54
   6  13  -1   19.43    1.71
   6  13  -1   16.15    2.05
   6 -13   1   18.25    1.29
   6  13  -1   15.15    1.97
  -6  13  -1   17.91    1.71
   6  13   1   17.97    1.88
  -6  13  -1   18.40    1.37
  -6 -13   1   19.77    1.49
   6  13   1   16.85    1.27
  -6  13  -1   17.43    1.30
   6 -13  -1   14.40    1.68
   6  13   1   15.38    1.80
  -6  13  -1   15.03    1.46
   6  13   1   18.09    1.60
   6 -13  -1   17.81    1.33
   6 -13   2   37.26    1.84
   6  13  -2   39.10    2.08
   6  13  -2   38.60    2.32
   6  13  -2   36.76    1.81
  -6 -13  -2   36.90    2.48
  -6  13   2   36.23    2.22
  -6 -13  -2   34.86    1.99
   6 -13   2   40.93    2.45
  -6 -13  -2   34.34    1.87
  -6  13  -2   34.64    2.00
  -6  13  -2   33.59    3.16
  -6  13  -2   39.08    2.16
   6  13   2   39.12    2.81
   6  13   2   36.10    2.29
   6 -13  -2   38.00    1.86
  -6  13  -2   39.91    2.52
  -6 -13   2   38.69    1.67
  -6  13  -2   40.69    2.23
   6 -13  -2   40.10    1.99
   6  13  -3    6.88    1.29
   6 -13   3    5.97    1.30
  -6 -13  -3    6.75    1.24
  -6 -13  -3    5.93    1.08
   6  13  -3    6.61    0.94
  -6 -13  -3    5.96    1.45
   6  13  -3    5.17    1.07
  -6 -13  -3    8.01    1.12
  -6  13  -3    5.84    1.26
  -6  13  -3    5.64    1.15
  -6  13  -3    5.70    1.15
  -6  13  -3   11.12    2.33
  -6  13  -3    6.33    0.90
   6  13   3    4.62    0.99
   6 -13  -3    6.48    1.04
  -6  13  -3    4.72    1.47
   6 -13  -3    5.92    0.87
  -6  13  -3    5.66    1.18
  -6 -13  -4    9.53    1.54
   6  13  -4    9.02    1.04
  -6 -13  -4    8.52    1.12
   6  13  -4   12.14    1.49
  -6 -13  -4    8.54    1.30
  -6 -13  -4   11.36    2.43
  -6  13  -4   14.32    2.26
   6 -13  -4   11.27    1.33
   6 -13  -4    7.59    1.03
  -6  13  -4   12.06    1.16
  -6  13  -4    7.89    1.46
  -6  13  -4   11.14    1.34
  -6  13  -4   10.00    1.33
  -6  13  -4   10.28    1.45
   6  13  -5    7.38    0.94
  -6 -13  -5    9.05    1.10
  -6 -13  -5    9.12    1.53
  -6  13  -5    7.61    0.96
   6 -13  -5    9.01    1.21
  -6  13  -5   10.46    1.33
   6 -13  -5    5.69    1.02
  -6  13  -5   17.35    2.67
  -6 -13  -6    0.96    0.82
  -6  13  -6    4.39    0.76
  -7 -13   0   16.77    1.54
   7 -13   0   14.48    1.24
   7  13   0   14.84    1.29
   7  13   0   11.61    1.43
   7  13   0   13.34    1.77
  -7  13   0   13.99    1.55
   7 -13   0   15.86    1.31
  -7  13   0   17.06    1.57
  -7  13   0   15.61    1.43
   7 -13   1    6.93    1.07
  -7  13   1    4.66    1.17
   7  13  -1    6.48    0.92
   7  13  -1    4.84    1.47
  -7 -13  -1    3.88    0.74
  -7  13   1    5.82    0.98
  -7 -13  -1    5.16    1.18
   7 -13   1    5.29    1.29
   7  13  -1    4.96    1.28
   7 -13   1    5.11    1.23
   7  13   1    3.49    1.09
  -7  13  -1    4.68    1.22
  -7  13  -1    4.45    0.76
   7  13   1    7.56    1.52
  -7  13  -1    5.31    0.94
  -7 -13   1    5.50    0.95
  -7  13  -1    4.16    1.08
   7 -13  -1    5.20    0.87
   7 -13  -1    5.28    0.89
   7  13   1    6.39    1.05
   7  13  -2    5.18    1.29
  -7 -13  -2    6.00    1.02
   7 -13   2    2.44    1.19
   7 -13   2    3.98    0.86
   7  13  -2    4.52    1.06
  -7 -13  -2    6.39    2.19
   7  13  -2    4.72    0.89
   7 -13  -2    5.26    0.94
  -7  13  -2    6.43    1.13
   7  13   2    6.60    1.85
  -7  13  -2    6.77    1.10
  -7  13  -2    5.72    1.12
   7  13   2    4.38    1.18
  -7  13  -2    5.25    1.58
  -7 -13  -3    1.42    0.98
   7  13  -3   -0.82    1.06
   7 -13   3    1.01    1.00
   7  13  -3    0.31    0.86
  -7 -13  -3   -0.20    0.77
  -7 -13  -3   -0.36    1.23
  -7  13  -3    0.25    0.75
  -7  13  -3    0.29    1.31
   7 -13  -3    0.62    0.75
  -7  13  -3    0.62    0.73
  -7  13  -3   -0.20    0.85
   7  13   3   -0.23    0.78
   7  13  -4    0.56    0.67
  -7 -13  -4    0.29    0.92
  -7 -13  -4    0.72    1.56
  -7 -13  -4    1.19    1.18
  -7 -13  -4    0.74    1.02
   7 -13  -4    0.70    0.68
  -7  13  -4    3.72    1.73
  -7  13  -4    1.35    1.51
  -7  13  -4    1.39    1.01
   7 -13  -4    0.32    0.93
   7  13  -5    2.93    0.93
  -7 -13  -5    3.98    1.34
  -7 -13  -5    1.89    0.95
  -7  13  -5    3.96    0.82
  -7  13  -5    3.44    1.36
  -7  13  -5    5.37    2.17
   7 -13  -5    5.36    1.07
   7 -13  -5    3.49    0.97
   8 -13   0    1.90    0.77
   8  13   0    1.76    1.45
  -8 -13   0    1.47    0.85
  -8  13   0    1.32    0.91
   8 -13   0    2.36    0.78
   8  13   0    2.35    0.77
   8  13   0    3.35    1.13
  -8  13   0    2.54    1.00
  -8  13   0    2.23    0.94
   8 -13   1   15.69    1.33
   8  13  -1   13.63    1.85
   8  13  -1   16.43    1.34
  -8 -13  -1   14.47    1.70
   8  13  -1   10.98    1.65
  -8  13   1   15.73    1.34
   8 -13   1   18.88    2.20
   8 -13   1   16.52    1.46
   8  13  -1   13.97    2.35
   8  13   1   14.34    1.43
  -8  13  -1   14.20    1.74
   8 -13  -1   14.87    1.37
  -8  13  -1   15.91    1.56
  -8  13  -1   17.17    1.60
   8  13   1   13.53    1.88
  -8 -13   1   16.01    1.32
   8  13   1   15.76    1.97
   8 -13  -1   14.47    1.30
   8  13  -2    1.57    1.07
  -8 -13  -2    2.67    1.09
   8 -13   2    2.48    0.83
   8  13  -2    2.78    1.04
   8  13   2   -0.67    2.37
  -8  13  -2    2.27    1.24
  -8  13  -2    1.46    0.92
  -8  13  -2    3.20    0.91
  -8  13  -2    1.75    1.18
   8 -13  -2    3.67    0.93
   8 -13   3    3.52    1.44
  -8 -13  -3    3.40    1.04
  -8 -13  -3    5.09    1.46
   8  13  -3    3.33    0.84
   8  13  -3    3.82    1.65
   8 -13  -3    2.90    0.77
  -8  13  -3    3.35    1.00
  -8  13  -3    3.44    1.01
  -8  13  -3    3.41    1.04
   8  13   3    2.46    1.00
   8 -13  -3    4.82    0.94
  -8  13  -3    3.73    1.28
  -8 -13  -4    1.98    1.54
   8  13  -4    2.67    0.75
  -8 -13  -4    1.12    1.17
  -8 -13  -4    1.93    1.06
  -8  13  -4    2.37    0.91
   8 -13  -4    0.53    0.80
  -8  13  -4    0.72    1.47
   8 -13  -4    1.44    0.74
  -8  13  -4    2.10    0.79
  -8  13  -4    1.01    1.05
  -8  13  -5   -0.04    0.59
  -8  13  -5   -2.35    2.17
  -8  13  -5   -0.17    0.52
  -9  13   0    0.16    0.73
  -9  13   0    1.28    1.09
   9 -13   0    0.28    0.85
   9  13   0    1.41    1.22
  -9  13   0   -0.97    0.74
   9  13   0   -0.81    0.75
  -9 -13   0    0.29    0.84
   9 -13   0    0.32    0.61
   9  13   0   -0.03    2.39
  -9 -13  -1    9.83    1.47
  -9  13   1   13.25    0.82
   9  13  -1   15.25    1.82
   9  13  -1   19.58    2.95
   9 -13   1   17.87    2.07
   9  13  -1   16.33    2.06
   9 -13   1   13.34    2.03
   9  13  -1   14.84    2.00
   9 -13   1   13.68    1.27
  -9  13   1   11.39    1.64
   9  13   1   12.56    1.99
   9 -13  -1   12.93    1.30
  -9  13  -1   14.80    1.68
   9 -13  -1   16.42    2.28
  -9  13  -1   15.04    1.60
  -9 -13   1   15.94    1.18
   9  13   1   16.77    2.13
   9  13   1   11.22    1.80
  -9 -13  -2    2.32    1.12
   9  13  -2    0.52    0.69
  -9 -13  -2    2.00    0.77
   9 -13   2    1.27    0.84
   9  13  -2    2.08    1.33
   9 -13   2    0.78    1.12
   9  13  -2    1.44    1.08
   9 -13  -2    1.19    0.67
   9  13   2   -0.49    1.00
   9  13   2   -1.31    1.11
   9 -13  -2    1.94    0.86
  -9  13  -2    1.17    1.02
  -9  13  -2    1.45    0.89
  -9  13  -2    0.46    0.82
   9  13  -3    4.12    0.86
  -9 -13  -3    4.14    0.99
   9 -13   3    5.07    1.54
  -9 -13  -3    2.44    1.47
   9  13   3    3.54    1.18
   9 -13  -3    4.78    0.96
  -9  13  -3    4.19    1.15
   9 -13  -3    2.83    0.80
  -9  13  -3    5.27    2.05
  -9  13  -3    5.82    1.05
  -9  13  -3    2.82    0.86
   9  13  -4    0.42    0.68
  -9 -13  -4    0.67    1.32
  -9  13  -4    0.63    1.20
   9 -13  -4    0.84    0.77
   9 -13  -4    1.26    0.79
  -9  13  -4    0.03    0.79
  -9  13  -4    2.07    0.81
  -9  13  -5   -0.18    0.55
  10 -13   0   50.40    3.68
  10 -13   0   49.38    2.41
  10  13   0   47.25    2.36
 -10 -13   0   49.87    2.34
 -10  13   0   51.25    2.24
  10 -13   0   53.17    2.40
  10  13   0   36.63    3.32
 -10  13   0   44.86    2.59
  10 -13   1   18.01    2.40
  10 -13   1   12.85    1.42
  10  13  -1   12.55    1.43
  10 -13   1   13.70    1.36
 -10 -13  -1    9.44    1.35
  10 -13  -1   16.03    1.44
 -10  13  -1   12.05    1.52
  10  13   1   11.24    1.32
 -10  13  -1   11.65    1.52
  10  13   1   11.31    1.96
  10 -13  -1   16.06    1.42
  10 -13   2    9.39    1.73
 -10 -13  -2    8.24    1.43
  10  13  -2    9.37    1.15
 -10  13  -2    8.19    1.23
  10  13   2    8.53    1.54
  10 -13  -2   10.21    1.20
 -10  13  -2    7.52    1.48
 -10  13  -2   11.03    1.66
 -10 -13  -3    0.18    1.02
  10  13  -3    0.49    0.70
  10 -13  -3    0.88    0.71
 -10  13  -3    1.36    1.18
  10 -13  -3    1.63    0.75
 -10  13  -3    2.03    0.92
 -10  13  -3    1.57    0.77
 -10 -13  -4   -1.16    0.97
  10 -13  -4    1.38    0.92
 -10  13  -4    0.91    0.60
 -10  13  -4    1.90    1.21
 -11 -13   0    0.59    0.68
  11 -13   0    0.47    0.63
  11  13   0    1.07    1.43
 -11 -13  -1    1.31    0.87
  11 -13   1    2.04    1.67
  11 -13   1    1.33    0.72
  11 -13   1   -1.12    1.11
  11  13  -1    1.76    0.96
  11  13   1    2.21    1.48
 -11  13  -1    0.84    0.83
  11 -13  -1   -0.28    0.58
  11 -13  -1    0.86    0.91
 -11  13  -1    1.55    1.39
  11  13   1    1.69    1.17
 -11 -13  -2    1.40    0.93
  11  13  -2    0.84    0.70
 -11  13  -2    1.38    0.82
  11 -13  -2    3.28    0.82
 -11  13  -2    1.17    0.91
  11 -13  -2    0.94    0.80
 -11 -13  -3   -0.07    1.06
  11  13  -3    0.93    0.73
 -11  13  -3    1.38    0.84
 -11  13  -3    1.28    1.19
  11 -13  -3    1.07    0.74
  11 -13  -3    1.04    0.75
 -11 -13  -4   -1.18    1.05
 -11  13  -4    0.00    0.62
 -11  13  -4    1.57    1.15
  12 -13   0    2.28    1.07
  12 -13   0    1.15    0.68
 -12 -13  -1   -0.78    0.92
  12 -13   1   -0.23    0.72
  12  13  -1    1.04    0.90
  12 -13  -1    0.88    0.77
  12  13   1    0.59    0.82
 -12  13  -1   -0.77    0.68
  12 -13  -1    0.05    0.57
 -12 -13  -2    0.99    0.78
  12  13  -2   -1.71    0.79
 -12  13  -2    0.85    1.28
  12 -13  -2   -1.29    0.72
  12 -13  -2   -0.31    0.60
 -12  13  -2    0.39    0.67
 -12 -13  -3    1.70    0.99
 -12  13  -3    1.57    1.08
 -12  13  -3    4.21    1.25
  12 -13  -3    1.85    0.75
  13  13   0    0.80    0.71
  13 -13   0    1.85    0.64
  13 -13  -1    6.47    0.83
   0  14   0   25.10    1.64
   0  14   0   21.41    1.75
   0  14   0   22.58    1.46
   0  14   0   21.70    1.49
   0 -14   0   21.22    1.28
   0  14   0   18.91    1.35
   0  14   0   22.39    1.28
   0 -14   0   22.81    1.31
   0  14  -1   68.98    2.63
   0  14  -1   65.05    4.52
   0  14   1   65.63    2.96
   0  14   1   71.89    2.80
   0  14  -1   70.14    2.91
   0  14   1   71.79    2.66
   0 -14  -1   70.01    2.58
   0  14  -1   66.85    2.87
   0  14  -1   70.01    2.43
   0 -14  -1   64.56    3.01
   0 -14  -1   67.39    2.55
   0  14  -1   71.45    2.77
   0 -14  -1   69.41    2.73
   0 -14   2   13.00    1.02
   0  14   2   11.98    1.35
   0  14   2   12.00    0.76
   0  14  -2   15.13    1.47
   0  14  -2   12.88    1.06
   0  14  -2   13.69    1.01
   0  14   2   14.34    1.63
   0 -14  -2   12.76    1.19
   0  14  -2   12.52    1.50
   0 -14  -2   12.19    1.04
   0  14  -2   14.34    1.59
   0 -14  -2   12.66    1.12
   0  14  -3   12.15    1.08
   0  14  -3   13.66    1.18
   0  14  -3   12.85    1.55
   0  14  -3   15.28    1.45
   0  14  -3   14.95    1.93
   0 -14  -3   13.75    1.26
   0  14  -3   11.38    1.49
   0 -14  -3   14.58    1.63
   0 -14  -3   13.75    1.20
   0 -14  -4    5.64    1.07
   0  14  -4    7.04    1.18
   0  14  -4   11.06    2.38
   0  14  -4    6.22    0.92
   0  14  -4    6.28    0.97
   0 -14   4    9.56    1.02
   0  14  -4    8.42    1.52
   0  14  -4    7.34    1.62
   0 -14  -4    6.53    1.03
   0 -14  -5    5.04    1.01
   0 -14  -5    4.31    0.99
   0  14  -5    5.49    1.10
   0  14  -5    4.24    0.83
   0  14  -5    5.42    0.94
   0  14  -6    2.51    0.82
   0 -14  -6    4.83    0.94
   0  14  -6    3.25    0.80
   0 -14  -6    2.20    0.89
   0  14  -6    3.54    0.73
   1  14   0    9.54    1.18
  -1 -14   0    9.74    1.27
  -1  14   0    9.87    1.10
   1  14   0    9.60    0.91
   1  14   0   11.06    1.31
   1  14   0    9.60    1.07
  -1  14   0   11.00    1.42
   1 -14   0    9.73    0.91
   1  14   0    9.74    1.53
   1  14   0   10.82    1.16
  -1  14   0   10.30    1.32
  -1 -14   0   10.05    1.01
  -1  14   0    9.85    1.12
  -1 -14  -1  112.44    4.23
   1  14  -1  106.70    4.49
   1  14  -1  118.31    4.16
  -1  14   1  113.53    4.06
   1 -14   1  115.88    3.64
  -1 -14  -1  120.01    3.82
   1  14  -1  112.18    3.76
   1  14  -1  117.62    3.98
  -1 -14  -1  113.18    3.89
  -1  14   1  116.53    4.01
  -1  14   1  112.43    4.13
  -1  14   1  121.79    3.77
   1 -14   1  110.59    3.71
  -1 -14  -1  113.09    3.78
   1  14  -1  117.46    4.18
   1  14  -1  117.31    3.63
   1 -14  -1  118.61    3.79
   1  14   1  110.63    3.93
   1  14   1  119.13    3.98
  -1  14  -1  119.93    4.22
  -1  14  -1  114.05    4.06
  -1  14  -1  113.03    4.37
  -1  14  -1  116.70    4.02
  -1  14  -1  112.49    3.87
   1  14   1  111.34    4.08
   1 -14  -1  111.35    4.49
  -1  14  -1  115.76    3.83
   1 -14  -1  116.08    3.76
   1  14   1  113.36    4.31
   1  14   1  115.07    4.01
  -1  14  -1  114.66    3.58
  -1 -14  -2   46.80    2.11
   1  14  -2   44.70    2.49
  -1  14   2   45.59    2.31
   1  14  -2   47.14    2.42
  -1 -14  -2   42.33    3.19
  -1 -14  -2   47.15    2.12
   1  14  -2   48.49    2.06
   1  14  -2   50.24    2.27
  -1  14   2   47.20    2.39
   1  14  -2   48.98    2.15
  -1 -14  -2   44.57    2.22
   1  14  -2   46.34    1.93
   1 -14  -2   50.10    2.06
  -1  14  -2   48.26    3.01
  -1  14  -2   44.37    2.41
  -1  14  -2   47.82    1.93
   1 -14  -2   44.54    2.04
  -1 -14   2   44.65    1.45
   1  14   2   46.23    2.38
   1 -14  -2   46.19    2.29
  -1  14  -2   46.40    2.13
  -1 -14   2   44.68    1.58
  -1  14  -2   50.15    2.56
  -1  14  -2   47.47    1.99
  -1  14  -2   45.09    2.20
   1  14  -3    3.77    0.73
  -1 -14  -3    4.55    1.09
   1  14  -3    3.84    1.15
  -1 -14  -3    2.11    0.72
  -1 -14  -3    2.29    0.77
   1  14  -3    4.44    0.82
   1  14  -3    3.09    0.99
   1  14  -3    4.12    1.55
   1  14  -3    3.96    0.95
  -1  14  -3    3.80    0.79
  -1  14  -3    3.51    0.90
   1 -14  -3    2.30    0.71
  -1  14  -3    2.83    0.90
  -1  14  -3    2.96    1.11
  -1 -14   3    3.43    0.82
  -1  14  -3    3.85    0.79
   1 -14  -3    2.50    1.21
   1 -14  -3    2.41    0.70
  -1  14  -3    3.84    1.15
   1  14  -4   37.15    1.90
   1  14  -4   34.54    1.81
  -1 -14  -4   35.41    2.09
   1  14  -4   36.87    2.08
  -1 -14  -4   35.41    2.65
   1  14  -4   30.75    2.27
  -1 -14  -4   33.88    2.03
   1  14  -4   33.40    2.59
   1 -14  -4   34.54    1.99
  -1  14  -4   33.23    2.02
  -1  14  -4   33.08    1.84
  -1  14  -4   32.32    2.50
  -1  14  -4   34.17    2.99
  -1  14  -4   36.91    1.85
  -1  14  -4   37.77    2.86
  -1 -14   4   32.66    1.10
   1 -14  -4   34.09    2.04
  -1 -14  -5    1.10    0.74
   1  14  -5    2.73    0.78
   1  14  -5    0.94    0.83
   1  14  -5    2.42    0.76
  -1 -14  -5    0.27    0.83
  -1  14  -5    0.85    0.63
  -1  14  -5    1.30    0.85
   1 -14  -5    1.05    0.77
   1 -14  -5    2.40    0.88
  -1  14  -5    1.73    0.86
   1  14  -6    1.16    0.66
  -1 -14  -6    0.47    0.77
   1  14  -6    0.77    0.98
  -1 -14  -6    0.13    0.64
   1  14  -6    0.61    0.56
   1 -14  -6   -0.62    0.68
  -1  14  -6   -0.01    0.68
  -1  14  -6    0.21    0.58
   1 -14  -6    1.29    0.79
   2  14   0   51.31    2.34
   2 -14   0   55.18    2.18
  -2  14   0   51.36    2.42
  -2  14   0   61.08    2.46
  -2  14   0   57.52    2.32
   2 -14   0   51.21    2.15
  -2 -14   0   55.29    2.23
  -2  14   0   54.09    2.29
   2  14   0   57.85    2.14
  -2  14   0   55.44    2.58
  -2  14   0   59.24    2.66
   2  14   0   55.70    2.86
   2  14   0   56.01    2.58
  -2 -14   0   52.34    2.20
  -2 -14   0   57.02    2.54
   2  14   0   58.11    2.41
   2  14   0   56.19    2.56
  -2 -14  -1   23.55    1.47
   2  14  -1   24.54    2.65
  -2 -14  -1   23.99    1.42
   2  14  -1   28.15    1.77
   2  14  -1   25.40    1.32
   2  14  -1   27.16    1.49
   2  14  -1   25.74    1.53
  -2 -14  -1   26.04    1.45
  -2 -14  -1   23.36    1.76
  -2  14   1   26.18    1.61
  -2  14   1   26.03    1.27
   2 -14   1   25.21    1.38
   2  14  -1   22.70    1.71
  -2  14   1   23.36    1.67
  -2  14  -1   24.85    1.94
   2  14   1   26.53    2.16
  -2  14  -1   25.98    1.65
   2 -14  -1   25.79    1.43
  -2  14  -1   23.35    1.26
  -2  14  -1   25.26    1.55
  -2 -14   1   24.03    1.61
   2  14   1   25.59    1.80
   2  14   1   25.15    1.66
   2 -14  -1   25.83    1.40
  -2  14  -1   23.87    1.50
  -2  14  -1   24.29    1.77
   2  14   1   24.08    1.65
   2  14   1   25.66    1.65
  -2  14  -1   24.98    1.70
  -2 -14  -2   25.53    1.56
   2  14  -2   27.55    1.59
  -2 -14  -2   24.52    2.41
   2  14  -2   27.67    1.40
  -2 -14  -2   28.29    1.69
  -2  14   2   23.64    1.71
   2  14  -2   25.05    1.84
   2  14  -2   22.41    1.59
   2 -14   2   27.49    1.65
  -2  14   2   29.09    2.12
   2  14  -2   26.19    2.08
  -2 -14  -2   28.01    1.59
  -2  14  -2   28.27    1.41
  -2  14  -2   24.04    1.44
  -2  14  -2   26.43    1.62
  -2  14  -2   26.34    1.69
  -2  14  -2   25.26    1.82
  -2  14  -2   26.63    1.99
  -2  14  -2   29.45    2.38
   2 -14  -2   28.58    1.57
   2  14   2   29.23    1.58
  -2 -14   2   23.17    1.67
   2 -14  -2   26.78    1.46
  -2  14  -2   26.51    1.98
   2  14  -3   16.00    2.29
   2  14  -3   15.43    2.02
   2  14  -3   14.95    1.54
   2  14  -3   17.81    1.34
   2  14  -3   17.52    1.25
  -2 -14  -3   18.46    1.44
   2  14  -3   16.02    1.47
  -2 -14  -3   17.63    1.42
   2 -14  -3   16.99    1.30
  -2  14  -3   18.65    1.88
  -2 -14   3   17.06    1.25
  -2  14  -3   17.98    1.28
  -2  14  -3   17.25    1.43
  -2  14  -3   14.74    1.84
  -2  14  -3   16.11    1.24
  -2  14  -3   13.09    1.89
  -2  14  -3   16.60    1.85
   2 -14  -3   17.09    1.35
  -2 -14  -4    0.81    0.80
   2  14  -4    0.20    0.82
   2  14  -4   -0.21    1.10
  -2 -14  -4    1.37    1.18
   2  14  -4    0.60    0.62
   2  14  -4   -0.24    0.93
  -2  14  -4    0.91    1.27
  -2  14  -4    2.37    1.46
  -2  14  -4   -2.39    1.15
   2 -14  -4    0.81    0.70
  -2  14  -4    1.78    0.69
  -2  14  -4    0.41    1.05
   2  14  -5    6.47    1.03
  -2 -14  -5    5.13    1.08
   2  14  -5    3.18    0.79
   2  14  -5    2.47    1.10
  -2 -14  -5    3.35    0.91
   2 -14  -5    2.53    0.92
  -2  14  -5    2.05    0.72
  -2  14  -5    3.88    0.93
  -2  14  -5    2.64    0.84
   2 -14  -5    3.91    0.93
  -2 -14  -6    4.53    0.87
  -2 -14  -6    4.86    1.04
   2  14  -6    7.16    1.05
   2 -14  -6    5.60    0.98
  -2  14  -6    4.25    1.20
  -2  14  -6    5.16    1.03
  -2  14  -6    6.01    0.82
   3  14   0   20.99    2.31
   3  14   0   18.59    1.35
  -3  14   0   19.30    1.37
   3  14   0   20.32    1.55
   3  14   0   19.38    1.19
  -3  14   0   19.78    1.46
   3 -14   0   18.80    1.22
  -3  14   0   20.34    1.74
  -3  14   0   19.90    1.30
  -3 -14   0   17.82    1.53
  -3 -14   0   17.58    1.19
   3  14   0   20.07    1.62
   3 -14   0   19.25    1.26
  -3  14   0   16.95    1.55
   3  14   0   16.60    1.43
  -3 -14  -1    0.12    0.50
  -3 -14  -1   -0.69    0.67
   3  14  -1    1.11    0.80
  -3  14   1    0.18    0.32
   3  14  -1   -0.88    0.74
  -3 -14  -1   -0.41    0.87
  -3  14   1    0.24    0.63
   3  14  -1   -0.25    0.79
   3 -14   1   -0.41    0.50
   3 -14   1   -0.03    0.60
   3  14  -1   -0.57    0.38
  -3 -14  -1    0.04    0.56
  -3  14   1    0.11    0.66
  -3 -14   1    0.18    0.57
   3  14   1   -0.14    0.69
  -3  14  -1    0.60    0.79
   3 -14  -1   -0.41    0.47
   3 -14  -1    0.18    0.47
  -3  14  -1    0.29    0.62
  -3  14  -1    1.01    0.56
  -3  14  -1   -0.49    0.49
  -3  14  -1    0.65    0.83
  -3  14  -1   -0.25    0.84
   3  14   1    0.11    0.68
   3  14   1    1.16    0.87
   3  14   1    0.35    0.81
  -3  14  -1    0.19    0.57
   3  14  -2    3.02    0.84
  -3 -14  -2    2.94    0.79
   3  14  -2    3.57    0.94
   3  14  -2    4.47    0.75
   3  14  -2    3.61    1.01
  -3  14   2    3.81    0.96
  -3 -14  -2    4.30    0.90
  -3 -14  -2    5.26    1.49
   3  14  -2    4.25    1.33
   3 -14   2    3.38    0.88
  -3 -14  -2    4.43    0.94
  -3  14   2    3.78    0.92
  -3  14  -2    4.39    0.97
  -3  14  -2    4.28    0.86
  -3  14  -2    3.62    0.74
  -3  14  -2    3.91    1.32
   3 -14  -2    3.81    1.34
  -3  14  -2    4.37    0.77
   3 -14  -2    3.29    0.84
  -3  14  -2    5.05    1.22
  -3  14  -2    5.04    1.07
   3  14   2    4.14    0.89
  -3  14  -2    3.47    1.38
  -3 -14   2    4.25    0.89
   3  14   2    3.77    1.44
   3 -14  -2    3.55    0.72
   3  14  -3   23.56    1.72
  -3 -14  -3   22.70    1.64
  -3 -14  -3   23.50    1.68
   3  14  -3   21.46    1.87
   3  14  -3   22.50    1.40
   3 -14   3   19.76    1.29
  -3 -14  -3   22.39    2.69
   3  14  -3   21.81    1.70
  -3  14  -3   22.83    1.46
   3 -14  -3   20.88    1.48
  -3  14  -3   21.33    1.38
  -3  14  -3   20.79    1.52
  -3  14  -3   17.76    2.88
  -3  14  -3   18.97    2.00
   3 -14  -3   21.23    1.42
  -3  14  -3   17.42    2.40
  -3  14  -3   19.58    1.68
  -3 -14   3   21.00    1.26
  -3 -14  -4   -0.07    1.23
   3  14  -4    0.87    0.89
   3  14  -4   -0.29    0.57
   3  14  -4    0.40    0.69
   3  14  -4   -0.17    1.11
  -3 -14  -4   -0.51    0.65
  -3  14  -4   -0.23    0.60
  -3  14  -4   -0.55    0.72
   3 -14  -4   -0.09    0.61
  -3  14  -4   -1.21    1.36
  -3  14  -4   -0.47    1.42
  -3  14  -4   -0.25    0.64
   3 -14  -4   -0.30    0.69
  -3  14  -4   -0.26    1.42
  -3  14  -4   -0.43    0.93
   3  14  -5   -0.50    0.58
  -3 -14  -5   -2.14    1.81
  -3 -14  -5    0.11    0.88
   3 -14  -5   -0.24    0.68
  -3  14  -5   -3.02    2.19
  -3  14  -5    1.46    1.25
   3 -14  -5   -0.40    1.13
  -3  14  -5    0.54    0.82
  -3  14  -5   -0.23    0.81
  -3 -14  -6    4.01    0.92
  -3 -14  -6    4.18    0.98
   3  14  -6    4.06    0.77
   3 -14  -6    3.49    0.90
   3 -14  -6    3.59    0.90
  -3  14  -6    5.69    0.99
  -3  14  -6    3.09    0.85
  -3  14  -6    6.15    1.00
  -4  14   0   17.13    1.52
  -4 -14   0   18.23    1.45
  -4  14   0   19.07    1.42
   4  14   0   19.91    1.64
   4  14   0   17.73    1.18
   4  14   0   17.66    1.61
   4  14   0   15.82    2.23
  -4  14   0   19.08    1.51
  -4  14   0   19.03    1.22
   4  14   0   17.27    1.67
   4  14   0   17.06    1.37
   4 -14   0   21.21    1.31
  -4 -14  -1   17.39    1.69
   4 -14   1   17.79    1.26
   4  14  -1   17.33    1.60
   4  14  -1   12.61    1.58
   4  14  -1   15.57    1.30
   4  14  -1   15.98    1.16
   4 -14   1   16.39    1.21
  -4 -14  -1   16.11    1.34
  -4  14   1   17.72    1.61
  -4 -14  -1   17.63    1.30
  -4 -14  -1   15.13    1.26
   4  14   1   18.05    1.55
   4 -14  -1   17.12    1.28
  -4  14  -1   14.55    1.72
   4  14   1   16.53    1.54
  -4  14  -1   13.85    1.84
  -4  14  -1   16.73    1.68
  -4  14  -1   16.44    1.39
   4  14   1   14.67    1.20
  -4  14  -1   14.70    1.72
   4 -14  -1   16.03    1.14
  -4  14  -1   17.03    1.35
   4  14   1   14.64    1.59
  -4 -14  -2   30.00    1.70
  -4  14   2   27.62    1.68
   4  14  -2   25.81    2.45
   4 -14   2   28.60    1.94
   4  14  -2   31.36    2.08
  -4 -14  -2   27.87    1.81
  -4 -14  -2   33.54    1.80
  -4 -14  -2   24.46    3.65
  -4  14   2   27.18    2.28
   4  14  -2   27.68    1.78
  -4  14  -2   29.84    1.73
  -4  14  -2   33.45    3.75
  -4 -14   2   32.80    1.83
  -4  14  -2   27.47    1.89
  -4  14  -2   29.98    2.31
  -4  14  -2   27.32    1.54
   4  14   2   28.03    1.85
   4 -14  -2   28.64    1.66
  -4  14  -2   28.36    1.81
   4  14  -3    5.29    0.83
   4 -14   3    5.58    0.91
   4  14  -3    5.46    1.65
  -4 -14  -3    5.59    1.12
  -4 -14  -3    6.56    1.98
  -4 -14  -3    5.17    0.94
  -4 -14  -3    4.56    1.05
  -4  14  -3    7.23    1.72
  -4  14  -3    4.73    2.18
  -4  14  -3    3.54    1.00
   4  14   3    5.16    0.73
  -4  14  -3    5.09    0.97
  -4  14  -3    5.44    0.86
  -4  14  -3    6.57    1.01
   4 -14  -3    4.14    0.81
   4 -14  -3    5.85    0.93
  -4  14  -3    9.73    2.09
  -4  14  -3    5.09    1.17
   4  14  -4    2.80    1.27
  -4 -14  -4    3.59    1.15
   4  14  -4    4.01    1.18
  -4 -14  -4    4.48    1.72
  -4 -14  -4    2.87    0.81
  -4  14  -4    2.90    1.35
  -4  14  -4    3.48    1.07
   4 -14  -4    3.26    0.85
  -4  14  -4    3.25    0.94
  -4  14  -4    3.28    0.82
  -4  14  -4    3.72    1.88
  -4  14  -4    3.11    1.19
  -4  14  -4    4.49    1.99
  -4 -14  -5    2.88    0.90
  -4 -14  -5   -1.23    1.48
   4  14  -5    3.21    0.79
  -4 -14  -5    3.34    1.38
  -4  14  -5    4.06    0.84
  -4  14  -5    2.67    0.98
   4 -14  -5    1.87    0.92
  -4  14  -5    1.42    1.71
  -4  14  -5    2.88    1.29
  -4  14  -5    1.78    1.08
   4 -14  -5    2.04    0.96
  -4 -14  -6   -0.13    1.01
   4 -14  -6    0.37    0.87
  -4  14  -6   -0.21    0.60
   5  14   0    9.73    1.20
   5 -14   0   12.32    1.06
   5  14   0    8.80    1.36
   5  14   0   11.82    1.72
  -5  14   0   12.18    1.51
   5 -14   0   12.34    1.08
   5  14   0   12.78    1.53
  -5  14   0   12.54    1.29
  -5 -14   0   12.10    1.55
  -5  14   0   10.82    1.33
  -5  14   0   11.25    0.90
  -5  14   1    8.21    1.22
   5  14  -1    5.49    1.29
  -5 -14  -1    5.84    0.99
   5 -14   1    5.88    0.89
   5 -14   1    6.31    0.92
   5  14  -1    5.84    0.88
  -5  14   1    5.75    1.05
   5  14  -1    5.38    1.14
   5  14  -1    6.03    0.99
  -5 -14  -1    6.84    1.37
  -5 -14   1    7.48    1.14
   5 -14  -1    6.24    0.93
  -5  14  -1    6.70    1.69
  -5  14  -1    6.74    0.97
   5  14   1    6.58    0.90
  -5  14  -1    5.52    1.31
  -5  14  -1    6.09    0.99
   5  14   1    7.37    1.31
   5  14   1    5.85    1.47
   5 -14  -1    6.28    0.91
  -5  14  -1    7.24    1.10
   5  14   1    4.28    1.87
  -5 -14  -2   33.25    1.92
   5 -14   2   31.28    2.13
   5  14  -2   32.63    2.95
  -5 -14  -2   34.83    2.39
   5  14  -2   33.51    1.69
  -5  14   2   32.86    2.10
  -5  14   2   32.03    1.74
  -5 -14  -2   31.73    1.77
  -5 -14  -2   29.06    2.14
  -5  14  -2   31.54    1.75
  -5  14  -2   33.07    2.03
  -5  14  -2   29.06    2.84
  -5  14  -2   33.65    2.07
   5  14   2   36.87    2.16
   5  14   2   36.08    2.84
  -5  14  -2   34.02    1.97
   5 -14  -2   32.45    1.78
  -5 -14   2   33.60    1.71
   5 -14  -2   34.72    1.77
  -5  14  -2   35.90    2.50
  -5 -14  -3   31.71    2.01
   5  14  -3   33.57    1.71
  -5 -14  -3   29.34    2.94
  -5 -14  -3   35.10    1.94
   5 -14   3   32.33    1.98
   5  14  -3   32.15    2.24
  -5 -14  -3   31.91    2.14
   5  14  -3   32.48    2.02
   5 -14  -3   37.47    1.98
  -5  14  -3   48.25    5.25
  -5  14  -3   33.87    2.32
  -5  14  -3   33.14    1.84
   5 -14  -3   33.37    1.79
  -5  14  -3   32.79    1.98
  -5  14  -3   34.15    1.79
  -5  14  -3   32.33    3.14
  -5  14  -3   32.73    2.11
   5  14   3   35.14    1.87
  -5 -14  -4   12.11    1.68
  -5 -14  -4   15.74    1.47
  -5 -14  -4   12.13    1.38
  -5 -14  -4   17.71    2.72
   5  14  -4   13.53    1.18
   5  14  -4   14.22    1.60
   5  14  -4    9.45    1.72
  -5  14  -4   15.93    1.58
   5 -14  -4   16.53    1.53
  -5  14  -4   14.56    1.87
  -5  14  -4   17.07    1.57
  -5  14  -4   17.57    1.36
  -5  14  -4   16.02    1.47
  -5  14  -4   14.32    2.81
   5 -14  -4   17.06    1.36
  -5  14  -4   10.33    2.25
  -5  14  -4   16.69    3.11
  -5 -14  -5    1.28    0.78
  -5 -14  -5    0.67    1.02
   5  14  -5    0.82    0.59
   5 -14  -5    1.64    0.87
  -5  14  -5    2.29    1.02
  -5  14  -5    1.00    0.66
   5 -14  -5    2.02    0.81
  -5  14  -5    0.29    0.93
  -5  14  -5    0.75    0.64
  -5 -14  -6    1.58    0.78
  -5 -14  -6    2.63    1.09
  -5  14  -6    1.41    0.65
  -6  14   0    0.06    0.70
   6 -14   0    0.55    0.57
  -6 -14   0    0.74    0.84
  -6  14   0   -0.46    0.63
  -6  14   0    0.52    0.79
   6  14   0    0.40    0.75
   6 -14   0    0.07    0.49
   6  14   0    0.10    0.60
   6  14   0    0.91    0.88
   6  14  -1   10.52    1.67
   6  14  -1    7.51    0.99
  -6 -14  -1    7.54    1.01
   6 -14   1    8.38    1.03
   6  14  -1    8.81    1.25
  -6 -14  -1    8.79    1.51
  -6  14   1    7.31    1.10
  -6  14   1    9.29    1.30
   6 -14   1   10.04    1.58
  -6  14  -1    8.85    1.16
   6 -14  -1    7.81    0.99
   6  14   1    6.30    1.33
  -6  14  -1    8.57    1.35
   6  14   1    6.53    1.29
  -6 -14   1    8.62    1.23
   6  14   1    6.84    1.53
  -6  14  -1    8.46    1.14
  -6  14  -1    7.59    1.23
   6 -14  -1    7.99    1.03
  -6 -14  -2   14.12    1.30
   6  14  -2   15.80    1.84
   6  14  -2   12.61    1.67
   6 -14   2   15.47    1.37
   6 -14   2   10.94    1.57
  -6 -14  -2   11.87    1.79
  -6  14   2   15.18    1.72
  -6 -14  -2   15.63    1.55
   6  14  -2   11.90    1.27
  -6  14  -2   14.82    1.63
   6 -14  -2   13.91    1.23
  -6  14  -2   11.05    2.46
   6  14   2   10.84    1.41
   6  14   2   11.85    1.97
  -6 -14   2   15.07    1.14
  -6  14  -2   14.19    1.96
   6 -14  -2   12.34    1.32
  -6  14  -2   12.19    1.41
  -6  14  -2   14.88    1.39
  -6 -14  -3   27.38    2.61
  -6 -14  -3   28.01    1.97
   6  14  -3   28.68    1.93
   6  14  -3   29.57    2.27
  -6 -14  -3   27.52    1.99
   6 -14   3   26.38    2.02
  -6 -14  -3   29.43    1.77
   6  14  -3   30.37    1.69
   6 -14  -3   29.66    1.82
   6 -14  -3   27.40    1.69
   6  14   3   30.99    1.93
  -6  14  -3   36.28    3.70
  -6  14  -3   26.67    2.54
  -6  14  -3   29.65    1.90
  -6  14  -3   29.80    1.99
  -6  14  -3   31.53    2.20
  -6 -14  -4    3.29    1.23
  -6 -14  -4    6.45    3.09
  -6 -14  -4    5.14    1.21
   6  14  -4    4.62    0.85
  -6 -14  -4    4.59    0.98
  -6  14  -4    3.55    0.94
  -6  14  -4    4.24    1.00
  -6  14  -4    4.81    1.33
  -6  14  -4    4.74    1.18
   6 -14  -4    5.22    0.98
   6 -14  -4    5.54    0.90
  -6 -14  -5    3.31    0.97
   6  14  -5    3.12    0.73
   6 -14  -5    2.31    0.84
   6 -14  -5    3.83    1.34
  -6  14  -5    4.07    0.88
  -6  14  -5    3.36    1.40
  -6  14  -6    1.19    0.59
   7  14   0   18.27    2.20
   7  14   0   17.03    1.78
  -7  14   0   15.43    1.49
  -7 -14   0   17.90    1.61
  -7  14   0   17.93    1.61
  -7  14   0   17.57    1.52
   7  14   0   15.54    1.36
   7 -14   0   16.70    1.32
   7  14   0   14.26    1.77
   7 -14   0   15.22    1.33
   7  14  -1   11.42    1.45
   7 -14   1   17.39    1.41
   7 -14   1   16.01    2.01
   7  14  -1   14.18    1.28
  -7  14   1   14.94    1.37
   7  14  -1   11.75    1.67
  -7 -14  -1   14.77    1.93
  -7  14   1   12.02    1.52
   7 -14   1   12.81    1.21
  -7 -14  -1   12.69    1.16
   7  14  -1   12.78    2.00
   7  14   1   18.62    2.28
  -7  14  -1   12.21    1.66
   7  14   1   13.64    1.41
   7  14   1   11.73    1.71
   7  14   1   14.54    1.83
  -7  14  -1   13.75    1.11
   7 -14  -1   11.72    1.26
  -7  14  -1   12.84    1.43
  -7 -14   1   13.01    1.38
   7 -14  -1   14.64    1.40
  -7  14  -1   14.42    1.99
  -7 -14  -2   10.48    1.25
   7  14  -2    9.42    1.32
   7  14  -2    9.68    1.21
  -7 -14  -2   13.39    2.51
   7 -14   2   13.03    1.87
   7 -14   2    9.02    1.05
   7  14  -2    9.29    1.55
   7 -14  -2   11.58    1.73
  -7  14  -2    8.69    1.20
  -7  14  -2   11.91    1.98
   7 -14  -2   11.50    1.23
   7  14   2    7.68    1.36
   7  14   2    9.34    2.40
   7  14  -3    7.37    1.49
   7  14  -3    6.93    0.95
  -7 -14  -3    6.14    2.40
  -7 -14  -3    5.66    1.57
  -7 -14  -3    6.64    1.68
   7  14  -3    5.12    1.12
   7  14   3    8.30    1.85
   7 -14  -3    7.60    1.15
  -7  14  -3    8.85    1.92
   7 -14  -3    7.78    1.07
  -7  14  -3    7.80    1.62
  -7  14  -3    7.40    1.21
  -7  14  -3    9.45    1.30
  -7 -14  -4    8.13    1.41
   7  14  -4    9.94    1.07
  -7 -14  -4    6.58    1.30
  -7 -14  -4    9.69    1.45
  -7 -14  -4    9.51    1.93
   7 -14  -4    9.59    1.13
  -7  14  -4    6.97    1.27
  -7  14  -4    8.96    1.25
  -7  14  -4    9.22    1.84
  -7  14  -4    6.56    1.03
   7 -14  -4    9.71    1.12
   7  14  -5    4.00    0.81
  -7 -14  -5    2.92    1.03
  -7  14  -5    4.28    2.32
  -7  14  -5    2.91    0.98
  -7  14  -5    1.99    0.78
   7 -14  -5    3.66    0.96
  -8  14   0   20.82    1.76
   8  14   0   20.64    2.32
   8  14   0   25.08    2.52
   8  14   0   18.90    1.54
   8  14  -1   10.04    1.20
   8  14  -1   14.82    1.75
  -8 -14  -1   10.81    1.58
   8  14  -1   13.75    2.46
   8 -14   1   13.60    1.28
   8 -14   1   13.48    1.99
  -8  14   1   14.27    1.26
   8  14  -1   10.19    1.58
   8 -14   1   15.99    1.51
   8  14   1   12.07    1.39
   8 -14  -1   12.72    1.34
  -8 -14   1   13.65    1.26
  -8  14  -1   13.81    1.94
  -8  14  -1    9.74    1.43
   8  14   1   12.70    1.91
   8  14   1   11.64    1.87
  -8  14  -1    8.36    1.30
   8 -14  -1   10.72    1.21
   8  14   1   14.20    2.04
   8  14  -2    8.00    1.38
   8 -14   2    9.10    1.68
  -8 -14  -2    9.41    1.10
  -8 -14  -2    9.48    1.60
   8  14  -2    9.19    1.20
   8  14  -2    8.68    1.52
   8 -14   2    9.14    1.11
  -8  14  -2    9.58    1.14
  -8  14  -2    9.39    1.66
   8  14   2   11.01    1.68
   8 -14  -2    9.38    1.14
  -8  14  -2    8.87    1.34
   8 -14  -2    9.97    1.20
  -8  14  -2    8.19    1.15
  -8 -14  -3    0.98    1.14
  -8 -14  -3    1.28    0.92
   8 -14   3    0.35    1.16
   8  14  -3    1.01    0.67
  -8  14  -3    1.16    0.78
  -8  14  -3    1.90    0.99
   8 -14  -3    1.36    0.78
  -8  14  -3    0.19    0.74
   8 -14  -3    1.32    0.75
   8  14   3    1.80    1.07
  -8  14  -3    0.92    1.23
  -8 -14  -4   -1.63    1.37
   8  14  -4   -0.03    0.66
  -8  14  -4    1.25    1.45
  -8  14  -4    0.43    0.74
   8 -14  -4    1.69    0.79
  -8  14  -4   -0.45    0.71
   8 -14  -4    0.17    0.66
  -8  14  -5   -0.47    0.88
  -8  14  -5    0.31    0.62
   9 -14   0    1.15    0.78
   9  14   0    1.97    0.86
  -9  14   0    1.86    0.96
  -9  14   0    2.38    1.09
  -9 -14   0    2.14    0.87
   9 -14   0    2.43    0.80
  -9  14   0    1.64    0.91
   9  14  -1    0.59    1.31
   9  14  -1    0.87    0.71
   9 -14   1    0.45    0.92
  -9 -14  -1    1.20    0.98
   9 -14   1    1.03    0.69
   9 -14   1    0.25    1.28
  -9  14   1    2.04    1.22
   9  14  -1   -0.28    2.02
   9  14  -1    1.97    1.18
   9  14   1    0.14    1.88
   9 -14  -1    0.68    0.69
  -9  14  -1    0.34    0.92
  -9 -14   1   -0.51    0.67
   9  14   1   -1.48    1.06
  -9  14  -1    1.01    0.88
   9  14   1    0.97    0.96
  -9  14  -1    0.37    0.75
   9 -14  -1    1.11    0.71
   9  14  -2    1.77    0.80
  -9 -14  -2    2.33    1.08
   9 -14   2    1.99    1.19
   9  14   2    3.18    1.16
  -9  14  -2    2.24    0.91
  -9  14  -2    2.71    0.96
   9 -14  -2    2.67    0.77
  -9  14  -2    1.43    0.98
   9 -14  -2    2.10    0.78
  -9 -14  -3    2.26    1.06
  -9 -14  -3    3.29    1.31
   9 -14   3    3.53    1.34
   9  14   3    3.73    1.29
  -9  14  -3    2.74    1.23
  -9  14  -3    3.16    0.89
  -9  14  -3    5.82    1.98
   9 -14  -3    3.50    0.79
  -9  14  -3    2.92    0.91
   9 -14  -3    1.99    1.08
  -9 -14  -4    5.01    1.31
   9  14  -4    7.05    1.32
  -9  14  -4    3.04    0.77
  -9  14  -4    6.82    1.61
   9 -14  -4    4.49    0.88
   9 -14  -4    5.10    0.91
  -9  14  -4    6.25    1.03
 -10 -14   0    2.86    0.88
  10 -14   0    2.66    0.92
  10  14   0    2.70    1.75
  10 -14   0    2.82    0.80
  10  14   0    1.66    0.90
  10 -14   0    2.07    1.88
 -10  14   0    5.72    1.01
 -10  14   0    2.43    0.98
 -10 -14  -1    2.30    1.18
  10  14  -1    1.83    0.86
  10 -14   1    1.15    1.40
  10 -14   1    2.67    0.93
  10 -14   1    0.40    1.06
  10 -14  -1    1.31    0.74
  10  14   1    2.83    1.38
 -10  14  -1    1.58    0.91
  10 -14  -1    1.61    0.84
  10  14   1   -1.19    1.81
 -10  14  -1   -0.18    1.29
  10 -14   2   11.81    2.57
  10  14  -2   12.28    1.74
 -10 -14  -2   12.33    1.60
  10 -14  -2   11.61    1.19
 -10  14  -2   12.05    1.43
 -10  14  -2   13.04    1.65
  10  14   2    6.77    1.84
  10 -14  -2   10.74    1.61
 -10 -14  -3   -0.14    1.05
  10  14  -3    0.09    0.66
 -10  14  -3   -0.21    0.63
 -10  14  -3    1.82    1.18
 -10  14  -3   -0.42    0.90
  10 -14  -3   -0.42    0.70
  10 -14  -3    0.57    0.66
 -10 -14  -4   -0.64    1.06
  10 -14  -4    0.72    0.69
 -10  14  -4    0.43    1.12
 -10  14  -4   -0.36    0.60
  11 -14   0    9.43    1.12
  11 -14   0    9.96    1.29
  11  14   0    6.63    1.11
  11  14  -1    0.79    0.78
  11 -14   1   -0.12    2.28
 -11 -14  -1    1.52    0.81
  11 -14   1    0.44    0.71
 -11  14  -1    1.23    0.85
  11 -14  -1    1.36    0.79
 -11  14  -1   -0.13    0.71
  11 -14  -1    1.28    0.66
  11  14   1    1.27    0.76
  11  14  -2    3.44    0.81
 -11 -14  -2    1.41    0.92
 -11  14  -2    1.65    0.97
 -11  14  -2    4.26    0.94
  11 -14  -2    1.70    0.75
  11 -14  -2    1.89    0.74
 -11 -14  -3   -0.80    0.81
 -11  14  -3    0.32    0.58
 -11  14  -3    0.26    0.97
  11 -14  -3    0.18    0.62
  12 -14   0    7.05    1.06
  12  14  -1   -0.50    0.83
  12 -14   1   -0.34    0.83
  12 -14  -1    1.48    0.79
  12 -14  -1    1.64    0.88
 -12 -14  -2    0.15    0.98
  12 -14  -2    0.77    0.59
 -12  14  -2   -0.74    0.69
 -12  14  -2    0.15    0.59
  13  14  -1   -0.47    0.61
  13 -14  -1   -0.43    0.52
   0  15   0    0.87    0.57
   0 -15   0    1.11    0.59
   0  15   0   -0.26    0.88
   0  15   0   -0.24    0.62
   0  15   0   -0.36    0.66
   0  15   0   -0.13    0.57
   0  15   0   -0.44    0.76
   0  15  -1    2.47    1.22
   0  15   1    3.24    0.92
   0  15  -1    3.50    0.65
   0  15   1    2.61    1.07
   0 -15  -1    3.68    0.82
   0  15   1    3.06    1.03
   0 -15  -1    3.07    0.67
   0  15  -1    3.29    0.90
   0  15  -1    3.62    0.82
   0 -15  -1    3.73    1.18
   0  15  -1    3.93    0.92
   0  15   1    3.09    0.74
   0  15  -1    1.41    0.88
   0  15  -2    5.84    2.16
   0  15   2    5.38    1.10
   0 -15  -2    4.71    0.94
   0  15  -2    6.40    1.21
   0  15  -2    7.89    1.15
   0  15   2    4.55    0.52
   0 -15  -2    5.27    0.97
   0 -15   2    6.63    0.83
   0  15  -2    6.01    1.07
   0 -15  -2    5.00    0.87
   0 -15  -3   -1.53    1.02
   0  15  -3   -0.83    0.53
   0  15  -3    1.31    1.98
   0  15  -3   -0.93    0.58
   0  15  -3   -1.01    0.96
   0  15  -3   -1.37    0.63
   0 -15  -3   -0.72    0.58
   0 -15  -3   -1.10    0.53
   0  15  -4    1.13    1.20
   0  15  -4   -0.19    0.59
   0  15  -4    1.48    0.71
   0  15  -4    1.24    1.30
   0 -15   4    0.08    0.68
   0  15  -4    1.96    0.85
   0  15  -4    2.36    2.07
   0 -15  -4    0.91    0.73
   0 -15  -4    0.54    0.76
   0  15  -5    8.45    1.07
   0  15  -5    8.91    1.22
   0 -15  -5    5.76    1.11
   0  15  -5   10.22    1.98
   0 -15  -5    6.75    1.40
   0 -15  -6    4.04    1.42
   0  15  -6    3.80    1.24
   0 -15  -6    2.39    1.09
   0  15  -6    1.82    0.84
   1 -15   0    0.21    0.55
   1  15   0    0.56    0.70
  -1  15   0    0.76    0.63
  -1  15   0    0.30    0.64
  -1 -15   0   -0.28    0.79
   1  15   0    0.07    1.06
   1  15   0    0.97    0.71
   1 -15   0   -0.14    0.49
   1  15   0   -0.03    0.61
  -1 -15   0    0.06    0.58
  -1  15   0    1.29    0.65
  -1  15   0    0.12    0.74
   1  15   0   -0.43    0.62
  -1  15   0    0.50    0.92
  -1  15   0   -0.36    0.77
   1  15   0    0.50    0.55
   1  15  -1  107.86    3.66
  -1  15   1   98.92    4.07
  -1 -15  -1  104.48    4.14
  -1 -15  -1  104.90    3.78
  -1 -15  -1  111.88    3.71
   1  15  -1  103.20    4.46
  -1  15   1  121.27    4.57
   1  15  -1  114.29    3.94
   1 -15   1  107.62    3.53
   1  15  -1  108.45    3.52
   1  15  -1  111.34    4.14
  -1  15   1  112.73    3.95
   1 -15  -1   99.24    3.74
  -1  15  -1  111.47    4.01
   1 -15  -1  108.03    3.84
   1  15   1  110.85    3.92
   1  15   1  106.47    4.23
   1  15   1  104.33    3.92
   1 -15  -1  107.91    3.65
   1  15   1  109.06    4.06
   1  15   1  111.22    3.85
  -1  15  -1  107.87    4.30
  -1  15  -1  106.33    3.73
  -1  15  -1  103.18    3.87
  -1  15  -1  108.92    4.12
  -1  15  -1  112.11    3.48
  -1 -15  -2    2.66    0.74
   1  15  -2    2.71    0.79
  -1 -15  -2    4.88    1.69
   1  15  -2    4.03    0.76
   1  15  -2    3.27    1.00
   1  15  -2    2.88    0.81
   1  15  -2    4.00    1.07
  -1  15   2    4.41    1.03
  -1  15   2    3.35    0.99
  -1 -15  -2    2.71    0.84
   1 -15  -2    4.20    0.81
  -1  15  -2    4.74    1.19
  -1  15  -2    3.93    1.03
   1 -15  -2    4.45    1.04
   1  15   2    2.97    0.64
  -1  15  -2    4.71    1.09
  -1  15  -2    4.06    0.84
   1 -15  -2    2.70    0.77
  -1 -15   2    3.11    0.82
   1  15   2    3.54    1.00
  -1  15  -2    6.10    1.82
  -1  15  -2    4.45    1.04
   1  15  -3    4.17    1.25
   1  15  -3    5.88    1.70
   1  15  -3    3.78    0.85
   1  15  -3    4.40    1.12
   1  15  -3    4.39    0.82
  -1 -15  -3    2.89    0.79
  -1 -15  -3    2.25    1.02
   1  15  -3    2.94    0.96
  -1 -15  -3    3.53    0.81
   1 -15  -3    5.53    1.22
   1 -15  -3    3.05    0.82
  -1  15  -3    3.77    1.27
  -1  15  -3    4.70    1.00
  -1 -15   3    4.57    0.94
  -1  15  -3    3.75    0.77
   1 -15  -3    3.63    0.83
  -1  15  -3    3.15    1.16
  -1  15  -3    3.98    0.79
  -1 -15  -4   13.06    1.48
   1  15  -4   14.70    1.30
  -1 -15  -4   10.48    2.02
   1  15  -4   15.31    1.87
   1  15  -4   14.68    1.22
   1  15  -4   13.50    1.49
   1  15  -4   12.73    1.87
  -1 -15  -4   13.72    1.48
  -1  15  -4   13.37    2.19
  -1  15  -4   16.48    1.54
  -1  15  -4   11.35    1.86
   1 -15  -4   13.74    1.53
  -1  15  -4   10.97    2.21
  -1  15  -4   14.81    1.28
   1 -15  -4   13.51    1.46
  -1  15  -4   15.18    1.34
  -1 -15  -5    4.68    1.03
   1  15  -5    5.89    1.17
   1  15  -5    6.18    1.01
  -1 -15  -5    4.24    1.45
   1  15  -5    4.92    1.38
   1 -15  -5    6.18    1.08
  -1  15  -5    4.54    1.33
  -1  15  -5    6.60    1.07
  -1 -15  -6    0.63    0.88
  -1 -15  -6    0.38    0.84
   1  15  -6    0.38    0.76
  -1  15  -6   -0.53    0.75
   1 -15  -6    0.07    0.71
  -1  15  -6    0.73    0.69
   1 -15  -6    1.11    0.76
  -2  15   0   12.11    1.54
   2  15   0   12.08    1.27
  -2 -15   0   11.60    1.38
  -2  15   0    8.97    1.46
  -2 -15   0   11.15    1.05
   2  15   0    9.73    1.34
   2  15   0    9.64    1.16
   2  15   0    9.95    1.01
  -2  15   0    8.35    0.98
  -2  15   0    8.31    1.09
   2  15   0   11.11    1.39
  -2  15   0   10.84    1.45
   2 -15   0    9.38    1.03
   2  15   0   11.91    1.78
   2 -15   0    9.58    1.00
  -2  15   1   82.05    3.14
   2  15  -1   82.08    2.80
   2  15  -1   79.93    3.90
   2  15  -1   77.25    3.38
   2 -15   1   76.52    2.75
   2  15  -1   77.98    3.30
  -2  15   1   78.96    2.67
  -2  15   1   78.52    3.23
  -2 -15  -1   76.68    3.37
  -2 -15  -1   77.06    2.91
  -2 -15  -1   72.17    2.94
   2  15  -1   77.90    2.90
   2 -15   1   82.07    2.89
  -2  15  -1   78.34    3.00
   2  15   1   75.14    3.13
  -2  15  -1   77.28    3.15
  -2  15  -1   78.84    3.19
  -2  15  -1   76.88    3.41
  -2  15  -1   78.70    2.96
  -2  15  -1   76.71    3.50
   2  15   1   76.17    4.50
   2  15   1   82.12    3.33
   2 -15  -1   78.24    2.89
  -2 -15   1   80.00    3.11
   2  15   1   74.70    3.10
   2  15   1   74.48    3.12
  -2  15  -1   76.91    2.68
   2 -15  -1   79.62    2.90
   2 -15   2    6.98    1.20
  -2 -15  -2    9.01    1.10
  -2  15   2    8.85    1.26
   2  15  -2    8.95    1.47
  -2 -15  -2    7.52    1.02
  -2  15   2    8.73    1.33
  -2 -15  -2    8.96    1.77
   2  15  -2    9.17    1.26
   2  15  -2   10.86    1.45
   2  15  -2    9.93    1.17
  -2 -15  -2    9.62    1.24
   2  15  -2    8.36    0.98
  -2  15  -2    9.47    1.19
   2  15   2    8.28    1.05
   2 -15  -2    7.52    0.94
   2 -15  -2   10.13    1.37
  -2  15  -2    8.91    1.36
  -2  15  -2    7.81    1.50
   2 -15  -2    8.44    1.04
  -2  15  -2    7.99    1.28
  -2  15  -2    8.68    1.78
  -2 -15   2    8.76    1.16
  -2  15  -2    8.13    1.33
   2  15  -3    6.16    1.24
   2  15  -3    8.55    1.21
   2  15  -3    6.47    0.91
   2  15  -3    8.65    2.41
  -2 -15  -3    5.77    0.99
  -2 -15  -3    5.61    1.48
  -2 -15  -3    5.95    1.05
   2  15  -3    6.90    1.35
  -2  15  -3    7.55    1.39
  -2  15  -3    7.73    1.26
  -2  15  -3    4.70    1.40
   2 -15  -3    6.36    1.01
  -2  15  -3    6.60    0.92
  -2 -15   3    5.39    0.89
  -2  15  -3    8.25    1.03
  -2  15  -3    6.21    1.55
   2 -15  -3    5.03    0.92
  -2  15  -3    6.97    1.15
   2  15  -4    8.28    1.13
  -2 -15  -4    5.94    1.48
  -2 -15  -4    8.67    1.25
   2  15  -4   11.23    1.35
   2  15  -4    7.98    1.36
   2  15  -4    8.97    1.49
   2  15  -4    8.30    1.71
  -2  15  -4    7.78    1.03
   2 -15  -4    3.61    1.14
  -2  15  -4    8.60    2.04
  -2  15  -4    9.60    1.95
  -2  15  -4    8.15    1.56
   2 -15  -4    7.03    1.09
  -2  15  -4    9.55    1.28
  -2 -15  -5    3.86    0.96
  -2 -15  -5    3.42    0.99
   2  15  -5    5.35    0.94
   2  15  -5    7.16    1.22
  -2  15  -5    9.32    2.88
   2 -15  -5    5.82    1.37
  -2  15  -5    6.02    1.04
  -2  15  -5    6.26    1.73
  -2  15  -5    4.27    0.88
   2 -15  -5    4.49    0.97
   2  15  -6    0.86    0.65
  -2 -15  -6    0.58    0.66
  -2  15  -6   -0.21    0.62
   2 -15  -6   -0.54    0.73
  -2  15  -6   -0.87    1.32
   2 -15  -6    0.73    0.77
   3  15   0    4.62    0.74
  -3  15   0    6.55    1.21
  -3 -15   0    4.75    1.15
  -3  15   0    7.04    1.53
   3  15   0    5.99    1.15
   3 -15   0    5.70    0.87
   3 -15   0    5.58    0.83
  -3  15   0    5.24    0.81
   3  15   0    4.91    1.08
  -3  15   0    4.92    1.10
   3  15   0    4.61    1.67
  -3  15   0    4.95    0.90
   3  15   0    6.99    1.23
   3  15   0    5.63    1.02
   3 -15   1    5.94    0.89
  -3  15   1    6.06    0.57
  -3 -15  -1    5.36    0.93
   3  15  -1    5.36    1.16
   3  15  -1    6.24    1.11
   3  15  -1    4.95    1.08
   3 -15   1    6.76    1.02
   3  15  -1    5.77    0.84
  -3 -15  -1    6.93    1.04
  -3 -15  -1    5.12    1.17
  -3  15   1    6.34    1.27
   3  15  -1    5.26    0.95
   3  15   1    7.01    1.15
   3  15   1    5.22    1.28
  -3 -15   1    7.04    1.82
   3  15   1    5.57    1.09
   3 -15  -1    5.19    0.83
   3  15   1    4.18    0.85
   3 -15  -1    5.88    1.55
  -3  15  -1    5.58    1.07
  -3  15  -1    5.52    1.01
  -3  15  -1    6.22    1.04
  -3  15  -1    5.67    1.31
  -3  15  -1    7.39    1.35
  -3  15  -1    5.07    1.17
   3  15   1    4.90    1.09
  -3  15  -1    5.84    0.89
  -3  15   2   34.28    2.16
   3 -15   2   32.56    1.98
  -3 -15  -2   31.87    1.81
  -3 -15  -2   34.11    2.42
  -3  15   2   33.44    1.95
   3  15  -2   33.26    2.26
   3  15  -2   32.93    2.48
  -3 -15  -2   31.65    1.84
   3  15  -2   32.39    2.22
  -3 -15  -2   27.24    3.07
   3 -15  -2   36.91    2.52
  -3 -15   2   31.76    1.85
  -3  15  -2   30.83    2.04
   3 -15  -2   34.45    2.22
   3  15   2   33.46    1.91
  -3  15  -2   31.75    1.75
  -3  15  -2   31.61    2.28
   3 -15  -2   34.23    1.80
  -3  15  -2   29.70    1.92
  -3  15  -2   29.97    1.79
  -3  15  -2   33.09    2.40
  -3  15  -2   31.03    4.00
   3 -15   3   29.80    1.41
   3  15  -3   26.51    1.91
  -3 -15  -3   31.09    1.93
   3  15  -3   29.35    1.66
  -3 -15  -3   29.60    2.99
  -3 -15  -3   34.10    2.12
   3  15  -3   28.16    2.04
  -3 -15  -3   33.31    1.96
   3  15  -3   33.61    2.32
  -3  15  -3   33.77    1.77
  -3  15  -3   28.45    3.26
  -3  15  -3   25.35    2.35
  -3  15  -3   32.09    3.12
  -3  15  -3   30.43    1.99
  -3  15  -3   32.29    1.90
   3 -15  -3   31.45    1.81
  -3  15  -3   32.11    2.29
   3 -15  -3   33.23    1.91
  -3 -15   3   31.79    1.61
  -3  15  -3   33.37    1.73
   3  15  -4    3.07    1.16
   3  15  -4    3.99    0.87
  -3 -15  -4    2.24    1.20
   3  15  -4    3.80    1.39
   3  15  -4    3.94    1.35
  -3 -15  -4    3.86    0.92
  -3 -15  -4    4.83    1.15
  -3  15  -4    4.14    0.96
  -3  15  -4    5.53    1.16
  -3  15  -4    3.66    1.45
  -3  15  -4    4.27    1.01
  -3  15  -4    5.11    1.89
  -3  15  -4    4.20    0.87
   3 -15  -4    3.45    0.89
  -3  15  -4    3.33    1.68
   3 -15  -4    2.51    0.85
  -3 -15  -5    5.00    0.96
  -3 -15  -5    6.04    1.43
   3  15  -5    6.06    0.92
  -3  15  -5    4.94    0.84
   3 -15  -5    3.75    0.88
  -3  15  -5    6.86    1.55
  -3  15  -5    4.90    1.00
   3 -15  -5    7.14    1.03
  -3 -15  -6    3.71    0.76
   3 -15  -6    2.75    0.85
  -3  15  -6    4.09    0.77
  -4  15   0   32.29    1.84
   4 -15   0   31.16    1.66
  -4 -15   0   29.44    1.97
   4  15   0   33.47    2.65
   4  15   0   27.12    2.02
  -4  15   0   31.90    2.19
  -4  15   0   31.69    1.70
   4  15   0   32.21    2.16
   4  15   0   32.51    1.63
   4  15   0   31.34    2.14
   4  15   0   31.14    1.89
  -4  15   0   31.27    2.08
   4 -15   0   33.49    1.72
   4 -15   1   24.19    1.44
   4  15  -1   24.21    1.86
   4 -15   1   26.10    1.53
  -4  15   1   23.03    1.67
  -4 -15  -1   20.56    1.51
  -4  15   1   24.74    1.74
   4  15  -1   23.45    1.90
   4  15  -1   24.13    1.42
   4  15  -1   23.68    1.69
  -4 -15  -1   22.80    1.87
   4 -15  -1   24.27    1.48
  -4 -15   1   24.20    1.62
  -4  15  -1   26.11    1.69
   4  15   1   20.47    1.40
   4  15   1   23.51    2.11
  -4  15  -1   26.16    2.58
   4  15   1   25.88    2.01
   4 -15  -1   24.83    1.55
  -4  15  -1   22.40    1.57
  -4  15  -1   21.18    1.87
   4  15  -2   20.66    3.12
  -4  15   2   12.21    1.48
   4  15  -2   14.64    2.06
   4 -15   2   15.49    1.61
  -4 -15  -2   14.04    1.93
  -4 -15  -2   14.90    1.37
   4  15  -2   14.55    1.15
  -4  15   2   14.47    1.37
   4  15  -2   14.66    1.56
  -4 -15  -2   15.39    1.41
  -4  15  -2   12.61    1.92
  -4  15  -2   15.98    2.10
   4 -15  -2   16.51    1.24
  -4  15  -2   11.46    1.83
   4 -15  -2   16.13    1.38
  -4 -15   2   15.04    1.31
   4  15   2   14.34    1.54
  -4  15  -2   15.56    1.29
  -4  15  -2   14.27    2.15
  -4  15  -2   15.64    1.52
  -4  15  -2   14.96    1.40
   4  15  -3   23.42    2.08
   4 -15   3   21.15    1.56
  -4 -15  -3   22.75    1.61
  -4 -15  -3   22.49    2.59
  -4 -15  -3   21.29    1.68
  -4 -15  -3   21.23    1.82
   4  15  -3   21.00    1.42
   4  15  -3   21.72    1.82
  -4  15  -3   17.30    2.30
  -4  15  -3   22.38    1.62
   4 -15  -3   22.39    1.60
  -4  15  -3   22.36    1.48
   4  15   3   20.89    1.13
   4 -15  -3   23.75    1.55
  -4  15  -3   20.00    1.50
  -4  15  -3   21.61    2.23
  -4  15  -3   20.83    2.59
   4  15  -4    1.52    1.32
   4  15  -4    3.11    1.20
   4  15  -4    1.77    0.69
  -4 -15  -4    0.79    0.95
  -4 -15  -4    2.30    1.12
  -4 -15  -4    1.80    0.84
  -4  15  -4    1.66    0.74
  -4  15  -4    1.48    0.99
  -4  15  -4    3.26    2.13
   4 -15  -4    2.54    0.82
   4 -15  -4    1.61    0.72
  -4  15  -4    2.98    0.89
  -4  15  -4    1.62    1.20
  -4  15  -4    1.30    0.79
  -4  15  -4    1.75    2.07
   4  15  -5    0.65    0.60
  -4 -15  -5    1.97    0.76
  -4 -15  -5    3.08    1.05
  -4  15  -5    1.50    0.91
  -4  15  -5    1.54    0.62
   4 -15  -5    0.84    0.76
  -4  15  -5    0.86    0.82
   4 -15  -5    0.21    0.80
  -4 -15  -6    0.28    0.67
   4 -15  -6    0.83    0.80
  -4  15  -6    0.55    0.63
   5  15   0   17.07    1.54
   5  15   0   18.82    1.79
  -5  15   0   18.37    1.60
   5 -15   0   18.22    1.35
  -5 -15   0   19.07    1.73
  -5  15   0   18.26    1.18
  -5  15   0   18.43    1.64
   5  15   0   17.50    2.50
   5 -15   0   17.78    1.52
   5  15   0   21.64    1.39
   5  15  -1   53.69    2.30
  -5  15   1   53.97    2.55
   5 -15   1   55.10    2.36
   5  15  -1   50.57    2.94
  -5 -15  -1   52.54    2.80
  -5 -15  -1   52.15    2.99
   5  15  -1   55.91    2.62
   5  15  -1   53.57    2.88
  -5  15   1   52.34    2.53
   5 -15   1   52.51    2.27
   5  15   1   54.79    2.94
  -5  15  -1   55.72    2.86
   5 -15  -1   54.76    2.37
  -5  15  -1   52.28    2.57
   5  15   1   54.24    2.78
  -5  15  -1   54.14    2.46
   5  15   1   55.33    2.85
  -5  15  -1   50.21    2.55
  -5 -15   1   53.58    2.54
   5  15   1   50.01    2.27
   5 -15  -1   53.12    2.33
  -5  15   2    9.61    1.42
  -5 -15  -2   11.13    1.19
   5  15  -2    8.20    1.02
   5  15  -2    9.66    1.32
   5  15  -2   10.61    1.75
  -5 -15  -2    9.51    1.22
  -5 -15  -2   10.45    1.70
   5 -15   2    9.80    1.46
  -5  15   2    9.10    1.06
  -5 -15  -2    6.54    1.19
  -5  15  -2   10.43    1.71
   5  15   2    7.63    1.27
  -5 -15   2    8.45    1.06
  -5  15  -2    9.75    1.37
   5 -15  -2   10.53    1.17
  -5  15  -2    9.23    1.36
   5 -15  -2    8.35    1.07
  -5  15  -2    9.71    1.27
  -5  15  -2    7.18    1.96
   5  15  -3    0.10    0.53
  -5 -15  -3   -0.78    0.77
   5 -15   3    0.67    0.85
   5  15  -3    0.62    0.99
  -5 -15  -3   -0.84    0.77
  -5 -15  -3   -0.11    0.94
   5  15  -3    0.73    0.85
  -5  15  -3   -0.57    0.61
  -5  15  -3    1.68    1.01
  -5  15  -3    0.33    0.82
   5  15   3    0.31    0.67
  -5  15  -3    0.60    1.02
   5 -15  -3    1.58    0.78
   5 -15  -3   -0.29    0.58
  -5  15  -3    0.75    1.99
  -5 -15  -4    5.32    1.00
  -5 -15  -4    3.74    1.14
   5  15  -4    4.36    0.84
  -5 -15  -4    2.40    1.15
  -5  15  -4    4.27    0.83
   5 -15  -4    3.11    0.86
   5 -15  -4    4.73    0.97
  -5  15  -4    2.71    0.86
  -5  15  -4    3.25    0.96
  -5  15  -4    2.76    1.36
  -5  15  -4    3.55    1.01
   5  15  -5    5.76    0.89
  -5 -15  -5    6.93    1.68
  -5 -15  -5    6.61    1.02
  -5  15  -5    5.80    1.23
  -5  15  -5    7.24    1.26
  -5  15  -5    6.56    0.99
   5 -15  -5    6.00    1.02
   5 -15  -5    5.43    0.97
  -5  15  -6    1.84    0.92
   6 -15   0   17.85    1.36
   6 -15   0   17.01    1.36
   6  15   0   16.31    2.07
  -6  15   0   13.40    1.43
  -6 -15   0   16.55    1.64
  -6  15   0   14.68    1.63
   6  15   0   17.28    1.74
  -6  15   0   17.39    1.61
   6  15   0   16.34    1.32
   6 -15   1    6.32    0.93
   6 -15   1    7.23    1.07
   6  15  -1    5.20    1.79
  -6  15   1    7.88    1.22
  -6 -15  -1    5.08    0.90
  -6 -15  -1    7.55    1.49
   6  15  -1    7.00    1.06
   6  15  -1    5.01    1.07
  -6  15   1    6.08    1.12
   6  15  -1    7.02    1.43
   6 -15  -1    7.13    1.04
  -6  15  -1    5.11    1.22
   6  15   1    4.55    1.35
  -6  15  -1    5.47    1.12
   6  15   1    5.52    0.96
   6  15   1    6.19    1.37
   6 -15  -1    5.36    0.93
  -6  15  -1    5.91    1.04
  -6 -15   1    7.50    1.17
  -6  15   2   17.07    1.81
  -6 -15  -2   20.56    2.25
   6  15  -2   22.42    1.49
  -6 -15  -2   21.14    1.62
   6 -15   2   20.30    1.93
   6  15  -2   16.90    1.87
   6  15  -2   20.02    1.78
   6 -15   2   19.70    1.98
  -6  15  -2   23.02    1.80
   6  15   2   21.68    1.84
   6 -15  -2   22.60    1.52
   6 -15  -2   23.51    1.59
  -6 -15   2   22.94    1.39
  -6  15  -2   21.88    2.17
  -6  15  -2   19.67    1.65
  -6  15  -2   25.76    2.88
  -6 -15  -3   45.17    3.01
   6  15  -3   43.15    2.77
   6  15  -3   44.96    2.20
   6  15  -3   47.55    2.57
  -6 -15  -3   46.10    2.21
  -6 -15  -3   45.30    2.52
   6 -15   3   47.86    2.51
  -6  15  -3   37.07    4.93
   6  15   3   46.50    2.21
  -6  15  -3   50.74    3.10
  -6  15  -3   46.45    2.40
  -6  15  -3   50.83    2.70
  -6  15  -3   42.72    2.41
   6 -15  -3   49.10    2.32
   6 -15  -3   48.78    2.37
  -6 -15  -4    9.51    1.19
  -6 -15  -4    8.04    1.41
   6  15  -4    9.26    1.05
  -6 -15  -4   10.30    2.03
   6 -15  -4    8.93    1.57
  -6  15  -4   12.97    2.32
  -6  15  -4    7.99    1.92
   6 -15  -4    9.57    1.15
  -6  15  -4    7.75    1.37
   6  15  -5    1.59    0.79
  -6 -15  -5    1.22    0.84
  -6 -15  -5    2.44    0.99
   6 -15  -5    2.78    0.90
  -6  15  -5    1.74    0.94
  -6  15  -5    1.57    0.65
  -7  15   0    7.54    1.24
   7 -15   0    8.88    1.17
   7  15   0    6.90    1.72
  -7 -15   0    9.34    1.39
   7 -15   0    7.37    1.07
   7  15   0   10.13    1.28
   7  15   0    7.51    1.64
  -7  15   0    8.84    1.34
   7  15   0    6.18    1.27
   7 -15   1    5.59    1.42
   7  15  -1    5.70    1.34
   7 -15   1    5.54    0.90
   7  15  -1    7.53    1.39
   7  15  -1    3.95    0.91
  -7  15   1    6.03    0.97
  -7 -15  -1    5.68    1.31
   7  15  -1    9.23    1.90
  -7  15   1    4.12    1.06
   7 -15   1    5.56    1.06
  -7 -15   1    5.35    1.00
   7  15   1    9.17    1.80
   7 -15  -1    5.07    0.93
  -7  15  -1    6.51    1.33
  -7  15  -1    3.92    1.06
   7 -15  -1    5.62    0.96
   7  15   1    5.42    1.04
   7  15   1    4.87    1.31
   7  15   1    7.73    1.66
  -7  15  -1    4.99    0.96
  -7  15  -1    4.53    0.75
   7 -15   2   10.32    1.51
   7  15  -2    8.16    1.32
   7  15  -2   12.54    1.88
  -7 -15  -2   14.51    1.93
  -7  15  -2   11.86    1.74
  -7  15  -2    9.48    1.34
  -7  15  -2   14.03    1.46
   7 -15  -2   13.70    1.32
  -7 -15  -3    2.45    1.24
   7  15  -3    1.65    0.76
  -7 -15  -3    1.83    0.92
   7 -15   3    1.78    1.06
  -7  15  -3    0.66    0.78
  -7  15  -3    1.98    0.77
   7 -15  -3    1.48    0.75
  -7  15  -3    0.64    0.88
  -7  15  -3    1.19    1.15
   7  15   3    1.07    0.99
   7 -15  -3    1.80    0.75
   7  15  -4    4.26    0.84
  -7 -15  -4    2.91    1.73
  -7 -15  -4    4.82    1.66
  -7 -15  -4    2.34    1.10
  -7  15  -4    6.68    1.63
   7 -15  -4    2.74    0.86
   7 -15  -4    5.28    0.98
  -7  15  -4    2.03    1.07
  -7  15  -4    3.55    0.92
  -7  15  -4    4.37    0.90
  -7  15  -5   -0.22    0.92
   7 -15  -5    1.44    0.85
  -7  15  -5    1.51    0.63
   8 -15   0   10.12    1.19
   8  15   0   12.18    1.83
  -8  15   0    7.80    1.34
   8  15   0   11.98    2.00
  -8  15   0   11.45    1.37
  -8 -15   0   10.73    1.42
  -8  15   0   10.45    1.42
   8  15  -1   39.85    2.53
   8 -15   1   36.91    2.80
  -8  15   1   42.50    2.40
  -8  15   1   41.19    1.91
   8 -15   1   42.37    2.09
  -8 -15  -1   32.59    2.34
   8  15  -1   37.14    3.20
   8  15  -1   29.43    3.09
   8  15  -1   44.08    2.87
  -8  15  -1   37.93    2.43
   8  15   1   38.85    3.30
  -8 -15   1   39.39    2.00
   8  15   1   41.68    2.83
  -8  15  -1   39.04    2.32
   8 -15  -1   40.60    2.12
  -8  15  -1   42.13    2.16
   8  15  -2    4.58    1.46
   8  15  -2    8.05    1.49
   8 -15   2    6.00    1.45
   8  15  -2    7.36    1.07
  -8 -15  -2    7.64    1.00
  -8 -15  -2    5.11    1.25
  -8  15  -2    7.56    1.28
  -8  15  -2    7.60    1.04
   8 -15  -2    6.84    1.15
   8 -15  -2    9.20    1.20
   8  15   2    5.01    1.22
  -8  15  -2    6.07    1.06
  -8  15  -2    8.15    1.48
  -8 -15  -3    3.57    1.04
   8  15  -3    3.45    0.82
   8 -15   3    0.47    1.19
  -8 -15  -3    4.95    1.82
   8 -15  -3    2.90    0.89
  -8  15  -3    2.48    1.10
   8 -15  -3    1.76    0.95
   8  15   3    1.70    1.12
  -8  15  -3    1.85    1.17
  -8  15  -3    3.29    0.97
  -8  15  -3    2.23    1.40
   8  15  -4    4.88    0.84
  -8 -15  -4    2.33    1.65
   8 -15  -4    4.69    0.98
  -8  15  -4    4.52    1.90
   8 -15  -4    7.18    1.05
  -8  15  -4    5.31    0.95
  -8  15  -4    6.15    0.91
  -8  15  -5    2.08    0.64
  -9  15   0   13.90    1.51
   9  15   0   13.03    2.15
   9  15   0   14.81    1.51
  -9 -15   0   14.39    1.57
   9  15   0   13.76    3.00
   9 -15   0   13.68    2.22
   9 -15   0   15.90    1.56
   9 -15   0   16.62    1.40
  -9  15   0   17.59    1.97
   9  15   0   11.45    2.13
  -9  15   0   13.07    1.59
   9  15  -1   11.88    2.66
  -9 -15  -1   13.98    1.71
   9 -15   1   16.40    1.43
   9 -15   1   16.49    1.65
   9 -15   1   14.41    2.09
  -9  15  -1   16.97    1.66
   9 -15  -1   14.76    1.45
   9 -15  -1   16.02    1.38
  -9  15  -1   17.39    1.73
   9  15   1   15.01    2.15
  -9  15  -1   15.57    1.54
   9  15   1   12.57    1.45
  -9 -15   1   16.20    1.11
   9 -15   2    1.85    1.26
  -9 -15  -2    3.75    1.69
   9  15  -2    2.01    0.77
  -9  15  -2    3.98    2.04
  -9  15  -2    3.81    1.37
  -9  15  -2    2.27    0.88
   9 -15  -2    3.28    0.89
   9  15   2    1.66    1.12
  -9 -15  -3   -0.40    1.09
   9  15  -3    1.88    0.73
   9 -15  -3    0.86    0.71
  -9  15  -3   -0.54    0.74
  -9  15  -3    0.57    1.08
  -9  15  -3    0.22    0.67
   9 -15  -3   -0.16    0.72
  -9 -15  -4    0.36    1.20
  -9  15  -4   -0.53    0.65
  -9  15  -4   -0.30    1.35
  -9  15  -4   -0.15    0.64
   9 -15  -4   -0.73    0.67
  10 -15   0    1.98    1.84
  10  15   0   -0.30    0.81
 -10 -15   0   -0.99    1.27
 -10  15   0    0.79    0.85
  10 -15   0    1.42    0.93
  10 -15   0    1.07    0.82
  10  15   0    1.71    2.41
  10  15  -1    2.81    0.86
  10 -15   1    1.03    1.28
  10 -15   1    6.51    2.84
 -10 -15  -1    4.18    1.16
  10 -15   1    3.11    0.83
 -10  15  -1    5.25    1.17
  10  15   1    3.74    1.30
  10 -15  -1    4.16    0.98
  10 -15  -1    3.20    0.84
 -10  15  -1    6.56    1.66
 -10 -15  -2    4.30    1.16
  10  15  -2    1.15    0.76
  10 -15  -2    4.09    0.88
 -10  15  -2    1.99    0.78
  10 -15  -2    4.02    0.90
 -10  15  -2    4.91    1.22
 -10  15  -2    2.52    1.73
 -10 -15  -3    0.07    0.98
  10  15  -3    0.04    0.70
  10 -15  -3   -1.18    0.96
  10 -15  -3    0.57    0.84
 -10  15  -3    0.33    0.65
 -10  15  -3   -0.85    1.04
 -10  15  -3    1.14    1.07
 -10 -15  -4    0.85    1.01
 -10  15  -4    1.62    1.11
 -10  15  -4    0.36    1.04
  11  15   0    2.45    1.02
  11 -15   0    1.33    1.03
 -11 -15  -1    0.81    1.30
  11  15  -1    1.30    0.85
  11 -15   1    0.60    1.15
 -11  15  -1    0.18    0.76
 -11  15  -1    0.85    0.73
  11 -15  -1    0.70    0.61
  11  15   1    0.87    0.86
 -11 -15  -2    2.73    1.00
  11  15  -2    2.21    1.30
 -11  15  -2    2.19    1.01
  11 -15  -2    2.75    0.82
 -11  15  -2    2.25    0.83
  11 -15  -2    1.09    1.21
 -11 -15  -3    2.05    1.02
 -11  15  -3    2.07    0.69
  11 -15  -3    3.11    0.69
 -11  15  -3    2.48    0.87
  12 -15   0   -0.36    0.60
  12 -15  -1    5.12    0.78
 -12 -15  -2   -0.07    0.74
  12 -15  -2    2.17    0.62
   0  16   0   56.24    2.39
   0  16   0   56.76    2.94
   0  16   0   56.56    2.81
   0 -16   0   58.27    2.37
   0  16   0   57.71    2.68
   0  16   0   59.88    2.65
   0  16   0   58.57    2.49
   0 -16   0   57.64    2.31
   0  16  -1   15.93    1.50
   0 -16  -1   19.33    1.35
   0  16  -1   17.38    1.41
   0  16   1   16.67    1.87
   0 -16  -1   18.72    1.33
   0  16   1   19.29    1.60
   0  16  -1   16.88    1.53
   0 -16  -1   19.60    1.51
   0  16  -1   19.09    1.77
   0  16   1   17.38    1.33
   0  16   1   20.53    1.83
   0  16  -1   19.88    1.21
   0 -16  -1   20.54    2.13
   0  16  -1   19.01    2.09
   0  16  -2   14.11    1.54
   0  16   2   16.83    1.58
   0 -16  -2   17.48    1.32
   0 -16  -2   17.50    1.53
   0 -16  -2   16.63    1.54
   0  16  -2   19.93    2.68
   0  16  -2   18.48    1.47
   0  16  -2   14.14    1.62
   0 -16   2   15.93    1.14
   0  16  -2   17.35    1.78
   0  16  -2   21.34    1.85
   0  16   2   14.60    0.74
   0  16  -3    5.71    0.92
   0 -16  -3    6.02    1.01
   0 -16  -3    8.87    1.60
   0  16  -3    6.86    1.63
   0 -16  -3    5.32    0.97
   0  16  -3    7.43    1.80
   0  16  -3    7.61    1.16
   0  16  -3    7.99    1.08
   0  16  -4    0.09    0.79
   0 -16  -4    1.19    0.72
   0  16  -4    0.98    1.95
   0  16  -4   -0.32    1.40
   0  16  -4    0.62    0.69
   0 -16  -4   -0.15    1.02
   0  16  -4    0.99    1.30
   0  16  -4    1.63    0.87
   0 -16   4    2.54    0.76
   0  16  -5   -0.60    0.67
   0 -16  -5   -0.09    0.78
   0  16  -5   -0.85    0.73
   0 -16  -5   -0.02    0.70
   0  16  -5    0.00    0.59
   0 -16  -6    0.44    0.65
   0  16  -6    0.29    0.88
   1  16   0    3.50    0.70
  -1  16   0    2.09    0.78
   1  16   0    2.39    1.04
  -1  16   0    1.72    1.10
  -1 -16   0    2.36    0.68
   1  16   0    2.57    0.91
  -1  16   0    2.90    1.13
  -1 -16   0    2.18    0.88
   1  16   0    2.78    0.90
   1 -16   0    1.51    0.63
  -1  16   0    2.93    0.79
  -1  16   0    1.61    1.03
  -1  16   0    1.73    0.87
   1  16   0    1.07    1.06
   1 -16   0    2.63    0.75
   1  16  -1    2.53    0.61
   1  16  -1    2.80    0.97
  -1 -16  -1    2.44    0.71
  -1  16   1    1.59    0.92
   1  16  -1    0.84    0.91
  -1 -16  -1    2.00    0.73
  -1 -16  -1    2.01    0.69
   1  16  -1    2.96    0.95
   1 -16   1    2.06    0.81
  -1 -16  -1    2.15    1.12
  -1  16   1    2.07    0.63
   1  16  -1    2.84    0.79
   1  16  -1    3.09    1.60
   1 -16  -1    1.90    0.75
   1  16   1    1.90    0.83
  -1  16  -1    2.24    1.23
   1 -16  -1    1.71    1.39
  -1  16  -1    1.57    0.95
  -1  16  -1    2.00    1.18
   1 -16  -1    2.65    0.77
   1 -16  -1    1.75    0.66
   1  16   1    2.80    0.83
   1  16   1    2.58    1.18
  -1  16  -1    2.27    0.66
  -1  16  -1    0.79    0.81
  -1 -16   1    4.04    1.74
   1  16   1    2.37    1.11
  -1  16  -1    2.10    1.09
  -1 -16  -2   47.93    2.49
   1 -16   2   48.89    2.20
  -1  16   2   51.18    2.53
  -1 -16  -2   50.68    2.31
   1  16  -2   50.52    2.31
  -1  16   2   50.12    2.57
   1  16  -2   46.44    2.71
   1  16  -2   52.73    2.99
   1  16  -2   52.14    2.57
  -1 -16  -2   48.06    2.31
  -1 -16  -2   47.55    3.17
  -1  16  -2   45.31    4.48
  -1  16  -2   50.94    2.88
  -1  16  -2   50.72    2.65
  -1  16  -2   50.15    2.12
  -1  16  -2   51.49    2.33
  -1  16  -2   43.86    2.88
  -1 -16   2   52.43    2.40
   1 -16  -2   49.81    2.53
   1 -16  -2   52.65    2.30
   1  16  -3   10.91    1.35
   1  16  -3    7.79    1.45
   1  16  -3    8.13    1.06
   1  16  -3    5.18    1.80
  -1 -16  -3    7.08    1.06
  -1 -16  -3    7.68    1.31
  -1 -16  -3    7.89    1.15
   1 -16  -3    7.94    1.07
  -1  16  -3    6.97    0.99
  -1  16  -3    7.08    1.08
  -1  16  -3    4.58    1.57
  -1  16  -3    9.15    1.23
  -1 -16   3    6.15    1.06
  -1  16  -3    7.95    1.59
  -1  16  -3    7.09    1.49
   1 -16  -3    5.92    0.99
  -1 -16  -4    7.66    2.71
   1  16  -4   11.28    1.33
  -1 -16  -4    8.78    1.25
  -1 -16  -4    8.90    1.30
   1  16  -4    9.47    1.93
   1 -16   4   10.93    1.20
   1  16  -4   10.25    1.72
   1  16  -4   10.80    1.20
   1  16  -4    8.07    1.11
   1 -16  -4    7.58    1.11
  -1  16  -4   10.68    1.26
  -1  16  -4   12.26    2.72
  -1  16  -4   10.91    2.12
   1 -16  -4    8.19    1.19
  -1  16  -4   11.49    1.39
  -1  16  -4   11.74    1.28
  -1  16  -4    5.37    1.75
   1  16  -5    2.31    0.94
   1  16  -5    3.11    0.81
  -1 -16  -5    1.50    0.79
  -1 -16  -5    2.03    0.86
   1 -16  -5    2.43    0.86
  -1  16  -5    2.11    0.84
   1 -16  -5    1.11    0.85
  -1  16  -5    1.55    0.85
  -1  16  -5    2.24    0.68
  -1 -16  -6    0.99    0.62
   1 -16  -6    0.83    0.68
  -1  16  -6   -0.26    0.71
   2  16   0   47.39    2.46
  -2 -16   0   45.51    2.07
  -2 -16   0   50.16    2.50
  -2  16   0   42.74    2.69
  -2  16   0   50.37    2.27
   2  16   0   49.38    2.56
   2  16   0   52.69    3.54
   2  16   0   49.51    2.04
   2 -16   0   51.04    2.15
  -2  16   0   51.05    2.57
   2  16   0   49.39    2.82
   2  16   0   48.01    2.52
   2 -16   0   47.20    2.09
  -2 -16  -1    6.95    1.36
   2  16  -1    4.18    1.13
   2 -16   1    6.13    1.45
   2  16  -1    9.42    2.09
  -2  16   1    3.30    0.57
  -2 -16  -1    7.35    1.05
  -2  16   1    5.38    1.02
   2  16  -1    4.21    1.08
   2  16  -1    6.50    1.14
   2 -16   1    4.02    0.75
  -2 -16  -1    5.11    0.89
   2  16  -1    4.27    0.99
  -2  16   1    4.60    1.10
  -2 -16  -1    4.59    0.89
  -2  16  -1    7.09    1.30
   2 -16  -1    3.62    1.17
  -2  16  -1    4.32    1.14
  -2  16  -1    4.51    1.01
  -2  16  -1    5.32    1.40
  -2  16  -1    4.23    0.85
  -2  16  -1    5.22    0.95
   2 -16  -1    3.56    0.72
   2  16   1    4.06    1.61
   2  16   1    6.97    1.47
   2  16   1    5.18    1.06
  -2 -16   1    4.38    1.02
   2  16   1    3.97    0.99
   2  16  -2   33.41    1.69
   2  16  -2   32.62    2.06
   2  16  -2   31.21    2.44
  -2 -16  -2   29.99    1.98
   2  16  -2   33.62    1.90
   2 -16   2   33.82    1.91
  -2 -16  -2   31.02    2.65
  -2  16   2   32.64    2.07
  -2 -16  -2   31.33    1.97
  -2 -16  -2   30.73    1.79
   2  16  -2   31.47    2.22
  -2  16  -2   33.66    2.18
  -2  16  -2   32.48    2.41
   2 -16  -2   32.00    1.80
  -2  16  -2   33.74    1.69
  -2 -16   2   33.32    1.87
  -2  16  -2   35.40    2.19
  -2  16  -2   29.58    1.79
   2 -16  -2   31.23    2.12
   2 -16  -2   33.91    1.83
  -2  16  -2   32.97    2.32
   2  16  -3    3.61    0.77
  -2 -16  -3    3.39    1.04
   2  16  -3    3.12    1.27
   2  16  -3    5.23    1.18
   2  16  -3    3.68    0.94
  -2 -16  -3    4.09    1.10
   2  16  -3    2.81    1.69
  -2 -16  -3    3.08    0.95
  -2  16  -3    2.41    0.77
  -2  16  -3    4.16    1.35
   2 -16  -3    3.33    0.85
  -2  16  -3    3.40    1.13
  -2  16  -3    2.61    2.23
   2 -16  -3    3.03    2.44
  -2  16  -3    3.48    1.13
  -2  16  -3    5.50    1.63
   2  16  -4   -0.04    1.83
  -2 -16  -4   -0.46    1.30
  -2 -16  -4    0.58    0.87
   2  16  -4    2.60    0.94
   2  16  -4    0.95    0.66
  -2 -16  -4    1.17    0.71
   2 -16  -4    1.30    0.77
  -2  16  -4    2.85    2.33
  -2  16  -4    1.68    2.45
  -2  16  -4    1.29    0.79
  -2  16  -4    0.95    0.71
  -2  16  -4    1.05    2.60
  -2  16  -4    1.23    0.72
   2 -16  -4    2.47    0.83
  -2 -16  -5   -0.67    0.61
   2  16  -5   -1.45    1.12
   2  16  -5   -0.03    0.76
   2 -16  -5    0.17    0.70
  -2  16  -5    1.39    0.93
  -2  16  -5    0.42    0.71
  -2  16  -5    0.28    0.60
  -2 -16  -6    0.73    0.64
  -2  16  -6    1.05    0.61
   2 -16  -6   -0.10    0.66
   3 -16   0    0.21    0.59
   3  16   0    0.64    0.58
  -3  16   0    0.81    0.67
  -3  16   0    2.28    0.94
   3  16   0    1.67    0.98
  -3  16   0    1.42    2.13
   3  16   0    1.82    0.97
  -3  16   0    1.17    0.64
   3 -16   0    0.61    0.59
   3  16   0   -1.63    1.42
   3  16   0    0.40    0.80
  -3 -16   0    1.61    0.99
   3  16   0    1.21    0.91
  -3 -16  -1    8.68    1.15
   3  16  -1    8.10    0.99
   3  16  -1    8.33    2.32
   3 -16   1    8.16    0.94
  -3  16   1    8.52    0.56
   3  16  -1    8.12    1.25
  -3 -16  -1    9.78    1.07
  -3 -16  -1   11.02    1.62
   3 -16   1   10.39    1.21
  -3  16   1    9.59    1.33
  -3  16   1    8.79    1.20
   3  16  -1    8.86    1.37
   3  16  -1    8.33    1.27
   3  16  -1    8.64    1.50
  -3 -16  -1    8.74    1.32
   3  16   1    7.58    1.44
   3 -16  -1    7.62    1.00
  -3  16  -1    7.16    1.16
  -3  16  -1    6.59    1.02
  -3 -16   1    9.51    1.30
   3  16   1    8.34    1.44
   3  16   1    7.80    1.08
  -3  16  -1    7.33    1.57
  -3  16  -1    9.43    1.59
  -3  16  -1    8.70    1.13
  -3  16  -1    7.00    1.91
  -3  16  -1    8.47    1.72
   3  16   1    9.78    1.35
   3  16   1    9.00    1.39
   3 -16  -1    9.33    1.05
  -3 -16  -2   85.25    3.89
   3  16  -2   83.98    4.06
   3  16  -2   89.24    3.39
  -3  16   2   88.92    3.65
  -3  16   2   86.14    3.44
   3  16  -2   81.96    3.08
   3  16  -2   83.45    3.68
  -3 -16  -2   86.97    3.27
  -3  16  -2   90.19    3.77
  -3 -16   2   93.63    3.46
  -3  16  -2   83.90    3.95
  -3  16  -2   90.67    4.19
   3  16   2   89.70    3.44
  -3  16  -2   89.01    3.42
  -3  16  -2   89.16    4.07
   3 -16  -2   89.63    3.34
  -3  16  -2   89.85    3.51
   3 -16  -2   88.15    3.37
  -3  16  -2   88.26    3.28
   3  16  -3    5.84    1.16
  -3 -16  -3    1.77    1.90
  -3 -16  -3    6.52    1.37
   3  16  -3    4.46    1.25
  -3 -16  -3    3.84    0.91
   3  16  -3    4.18    1.14
  -3 -16  -3    4.49    1.03
   3  16  -3    5.84    2.20
   3  16  -3    5.37    0.91
  -3  16  -3    9.44    1.88
  -3  16  -3    4.12    0.94
  -3 -16   3    5.36    0.87
   3 -16  -3    4.45    0.93
   3 -16  -3    4.65    0.90
  -3  16  -3    6.70    2.01
  -3  16  -3    3.73    1.21
  -3  16  -3    3.65    0.96
  -3  16  -3    4.41    1.53
  -3  16  -3    3.80    1.18
  -3 -16  -4    5.01    1.15
  -3 -16  -4    6.08    1.56
   3  16  -4    5.80    0.95
   3  16  -4    6.01    1.45
  -3 -16  -4    5.10    1.03
   3  16  -4    8.57    1.68
  -3  16  -4    7.82    2.25
   3 -16  -4    6.90    1.13
  -3  16  -4    6.48    1.53
  -3  16  -4    6.16    1.01
  -3  16  -4    5.94    1.08
  -3  16  -4    6.55    1.01
  -3  16  -4    5.28    1.26
  -3  16  -4   10.19    2.14
   3 -16  -4    6.34    1.07
  -3 -16  -5    1.88    0.72
  -3 -16  -5    2.18    0.94
   3  16  -5    2.35    0.71
  -3  16  -5    1.45    0.90
   3 -16  -5    1.50    0.80
  -3  16  -5    1.32    0.72
   3 -16  -5    1.58    0.84
  -3 -16  -6    4.87    1.06
  -3  16  -6    3.59    0.73
   3 -16  -6    5.19    1.06
   4  16   0   22.03    2.05
   4  16   0   21.00    1.42
  -4  16   0   22.56    1.75
  -4  16   0   22.10    1.39
  -4 -16   0   21.14    1.69
   4 -16   0   22.68    1.45
   4  16   0   26.64    2.82
   4  16   0   21.05    1.74
   4 -16   0   23.25    1.49
  -4  16   0   22.44    1.57
   4  16   0   21.97    1.95
  -4  16   0   22.38    1.67
   4  16  -1   54.31    3.04
  -4 -16  -1   52.22    2.28
   4  16  -1   53.35    2.34
   4  16  -1   56.94    2.70
  -4 -16  -1   58.79    2.93
  -4 -16  -1   53.48    2.52
  -4  16   1   57.08    2.68
   4 -16   1   54.55    2.38
   4 -16   1   59.26    2.34
  -4  16   1   56.87    2.67
  -4  16  -1   55.10    2.51
   4 -16  -1   55.00    2.44
  -4 -16   1   53.49    2.54
  -4  16  -1   54.77    3.44
   4  16   1   55.86    2.84
   4  16   1   55.32    3.09
  -4  16  -1   52.80    2.93
   4 -16  -1   59.61    2.47
  -4  16  -1   56.37    2.64
  -4  16  -1   57.65    2.67
   4  16   1   56.53    2.38
   4  16  -2   69.97    2.67
  -4 -16  -2   65.44    3.36
  -4 -16  -2   65.69    2.72
  -4  16   2   65.27    2.77
   4  16  -2   65.13    3.61
   4 -16   2   58.99    2.96
  -4  16   2   64.97    3.07
   4  16  -2   69.53    3.44
  -4 -16  -2   68.68    2.96
  -4 -16  -2   65.31    2.81
   4 -16  -2   63.06    2.75
   4  16   2   64.73    2.96
  -4  16  -2   65.53    3.07
  -4  16  -2   62.78    4.19
  -4  16  -2   67.07    2.94
  -4  16  -2   70.46    2.91
  -4  16  -2   66.59    3.79
  -4  16  -2   67.83    3.44
   4 -16  -2   68.21    2.78
  -4 -16   2   68.54    2.78
   4 -16   3   58.38    2.32
  -4 -16  -3   59.16    2.99
  -4 -16  -3   59.83    2.80
   4  16  -3   58.78    2.99
  -4 -16  -3   58.10    2.94
   4  16  -3   62.49    2.53
  -4 -16  -3   57.11    4.02
   4 -16  -3   59.34    2.78
  -4  16  -3   61.18    2.72
  -4  16  -3   54.07    3.80
  -4  16  -3   54.62    3.81
  -4  16  -3   61.15    3.14
   4 -16  -3   55.45    2.53
  -4  16  -3   58.40    2.51
  -4  16  -3   50.74    3.62
  -4 -16  -4   21.44    2.12
   4  16  -4   21.21    1.41
  -4 -16  -4   19.28    1.75
  -4 -16  -4   24.16    1.70
  -4  16  -4   20.02    2.29
  -4  16  -4   20.87    1.62
   4 -16  -4   22.07    1.64
   4 -16  -4   25.08    1.70
  -4  16  -4   23.34    1.65
   4  16  -5    3.49    0.81
  -4 -16  -5    3.48    0.87
  -4 -16  -5    1.83    1.05
   4 -16  -5    2.17    0.92
  -4  16  -5    4.25    1.08
   4 -16  -5    3.27    0.92
  -4  16  -5    2.80    0.79
  -4  16  -6    0.35    0.60
  -5 -16   0   -0.66    0.71
   5 -16   0   -0.19    0.56
  -5  16   0   -0.33    0.64
   5 -16   0    0.15    0.61
   5  16   0   -0.04    1.60
   5  16   0   -0.12    0.77
  -5  16   0   -0.12    0.71
   5  16   0    0.15    0.63
  -5  16   0    0.05    0.47
   5  16   0    1.12    1.00
  -5  16   0   -0.04    0.87
   5  16  -1   15.23    1.78
   5 -16   1   21.65    1.44
  -5  16   1   22.56    1.71
  -5 -16  -1   19.70    1.44
   5  16  -1   17.20    2.10
   5  16  -1   21.75    1.82
   5  16  -1   19.47    1.43
  -5 -16  -1   21.58    2.17
  -5  16   1   19.99    1.66
   5 -16   1   18.07    1.47
  -5  16  -1   20.52    1.59
   5  16   1   17.30    1.93
   5 -16  -1   21.57    1.47
  -5  16  -1   21.32    1.66
  -5  16  -1   19.25    1.83
   5 -16  -1   18.92    1.46
  -5 -16   1   21.20    1.67
   5  16   1   20.06    2.07
  -5  16  -1   19.12    1.49
   5  16   1   23.45    2.36
   5  16  -2    3.36    0.82
  -5 -16  -2    4.58    1.06
   5  16  -2    3.13    1.30
  -5  16   2    4.02    1.09
  -5 -16  -2    3.36    1.65
  -5 -16  -2    2.46    0.95
   5  16  -2    2.50    1.01
   5  16  -2    4.89    1.93
   5 -16   2    2.09    1.03
  -5 -16   2    3.09    0.89
  -5  16  -2    4.09    1.79
   5 -16  -2    3.77    0.88
  -5  16  -2    2.72    2.25
   5 -16  -2    3.75    0.85
   5  16   2    3.85    1.07
  -5  16  -2    2.22    0.88
  -5  16  -2    2.85    1.03
  -5 -16  -3    4.65    1.12
   5  16  -3    6.18    1.69
  -5 -16  -3    3.92    1.64
  -5 -16  -3    5.05    0.97
   5  16  -3    5.11    1.15
   5  16  -3    3.68    1.26
   5 -16   3    6.33    1.04
  -5  16  -3    4.95    2.65
  -5  16  -3    5.05    1.12
  -5  16  -3    5.06    1.61
   5 -16  -3    6.25    1.06
  -5  16  -3    4.12    0.98
   5 -16  -3    3.60    1.48
   5  16   3    4.12    0.75
  -5  16  -3    6.78    1.36
  -5 -16  -4    2.53    1.39
  -5 -16  -4    3.56    2.22
   5  16  -4    3.24    0.79
  -5 -16  -4    4.04    1.22
  -5 -16  -4    2.46    1.15
  -5  16  -4    3.81    1.08
  -5  16  -4    8.06    2.24
  -5  16  -4    2.19    0.86
  -5  16  -4    2.96    1.83
   5 -16  -4    2.74    0.87
  -5  16  -4    0.83    1.15
   5  16  -5    1.56    0.73
  -5 -16  -5    0.39    0.82
  -5  16  -5    1.57    0.80
   5 -16  -5    1.51    0.85
   5 -16  -5    0.81    1.33
  -6 -16   0   11.80    1.71
   6 -16   0    8.00    1.06
   6  16   0   10.31    1.25
  -6  16   0   10.28    1.33
   6  16   0    9.10    1.60
  -6  16   0    9.77    1.52
  -6  16   0    8.14    1.42
   6  16   0    7.01    1.32
   6 -16   0    9.69    1.23
   6  16  -1    1.91    0.99
  -6 -16  -1    1.10    0.67
   6  16  -1    0.30    1.06
   6  16  -1    1.39    0.75
  -6  16   1   -0.09    1.37
   6  16  -1    0.31    1.40
  -6 -16  -1    0.67    1.25
  -6  16   1    1.01    0.85
   6 -16   1    1.15    0.96
  -6  16  -1    1.68    0.85
  -6  16  -1    1.17    0.68
  -6  16  -1    0.77    0.79
   6  16   1    0.30    0.86
  -6  16  -1    1.87    1.16
   6  16   1    1.89    1.15
   6 -16  -1    1.11    0.70
   6 -16  -1    1.27    0.67
  -6 -16   1    2.34    0.96
   6  16   1    1.56    1.47
   6 -16   2    2.13    1.02
  -6  16   2    3.55    1.02
   6  16  -2    2.66    0.76
   6  16  -2   -0.98    2.12
  -6 -16  -2    3.43    1.48
   6  16  -2    3.58    1.09
  -6 -16  -2    3.46    0.98
   6  16  -2    1.39    1.22
  -6  16  -2    2.53    0.91
  -6  16  -2    2.79    0.97
  -6  16  -2    3.66    1.31
  -6  16  -2    3.12    0.87
   6 -16  -2    2.87    0.84
  -6 -16   2    3.53    0.85
   6 -16  -2    2.95    0.82
   6  16   2    1.63    1.04
   6  16  -3    1.26    0.76
   6  16  -3    2.88    1.16
   6 -16   3    0.09    0.99
   6  16  -3    1.29    1.24
  -6 -16  -3    2.74    1.30
  -6 -16  -3    3.32    1.02
  -6 -16  -3    1.88    1.02
  -6  16  -3    2.94    0.91
   6 -16  -3    1.82    0.75
  -6  16  -3    1.92    0.89
  -6  16  -3    0.47    1.36
   6 -16  -3    2.20    0.83
   6  16   3    1.43    0.85
  -6  16  -3    3.25    1.15
  -6 -16  -4    7.90    2.02
   6  16  -4    5.28    0.98
  -6 -16  -4    7.79    1.93
  -6 -16  -4    3.89    1.01
  -6  16  -4    3.76    1.90
  -6  16  -4    2.33    1.61
   6 -16  -4    5.02    0.93
   6 -16  -4    4.44    1.26
  -6  16  -4    3.86    1.03
  -6  16  -4    5.13    1.02
   6  16  -5    4.49    0.83
  -6  16  -5    3.45    0.71
   6 -16  -5    3.12    0.84
   6 -16  -5    5.26    1.34
   7  16   0   41.89    2.19
  -7  16   0   33.80    2.88
   7 -16   0   44.18    2.23
  -7  16   0   40.06    3.22
   7  16   0   40.41    2.91
   7  16   0   40.79    2.57
   7  16   0   40.89    2.89
  -7 -16   0   42.99    3.53
   7  16  -1   34.37    1.94
   7 -16   1   37.64    2.75
   7  16  -1   30.54    2.51
   7  16  -1   26.26    2.84
  -7  16   1   34.34    1.93
   7 -16   1   31.88    2.06
   7 -16   1   33.83    1.84
  -7  16   1   35.49    2.18
  -7 -16  -1   33.81    2.35
   7  16  -1   36.15    2.44
  -7  16  -1   35.47    2.09
  -7  16  -1   31.68    2.14
  -7  16  -1   33.10    1.45
   7 -16  -1   34.47    1.97
  -7  16  -1   32.74    2.31
   7 -16  -1   40.28    2.05
  -7 -16   1   35.48    2.00
   7  16   1   34.29    2.54
   7  16  -2   17.94    1.40
  -7 -16  -2   19.21    1.56
   7  16  -2   11.09    2.11
  -7 -16  -2   17.96    2.06
   7 -16   2   15.68    1.94
   7  16  -2   16.79    2.79
   7 -16  -2   18.71    1.49
   7 -16  -2   16.27    1.41
   7  16   2   18.83    2.03
  -7  16  -2   17.78    1.66
  -7  16  -2   16.82    1.66
  -7  16  -2   18.74    2.14
  -7  16  -2   15.49    1.92
   7 -16   3    4.42    1.25
  -7 -16  -3    6.73    1.18
   7  16  -3    5.55    1.04
  -7 -16  -3    6.31    2.43
  -7  16  -3    6.05    1.03
  -7  16  -3    6.87    2.25
   7 -16  -3    5.04    0.96
   7  16   3    5.86    1.07
   7 -16  -3    6.60    1.01
  -7  16  -3    6.10    1.14
  -7  16  -3    4.90    1.18
   7  16  -4    1.37    0.71
  -7 -16  -4    2.71    1.69
   7 -16  -4    3.02    0.83
  -7  16  -4    0.80    0.81
   7 -16  -4    1.60    0.79
  -7  16  -4    2.11    1.54
  -7  16  -4    1.52    0.75
   7 -16  -5    0.03    0.72
  -7  16  -5    0.44    0.87
  -8  16   0   26.46    1.93
  -8 -16   0   28.21    1.94
   8 -16   0   27.35    1.81
  -8  16   0   27.19    1.96
   8  16   0   27.91    4.46
   8  16   0   26.67    3.63
   8 -16   0   26.47    1.75
  -8  16   0   25.27    1.91
   8 -16   1    3.73    0.90
  -8 -16  -1    4.78    1.17
   8  16  -1    5.48    1.39
   8  16  -1    5.88    1.11
   8 -16   1    4.86    1.48
   8  16  -1    5.56    2.11
   8 -16   1    5.20    1.23
  -8  16   1    7.83    1.04
   8  16  -1    7.65    1.75
  -8  16   1    5.76    1.29
   8  16   1    4.49    1.48
   8 -16  -1    5.37    0.95
   8 -16  -1    6.44    1.13
   8  16   1    3.26    1.10
  -8  16  -1    4.61    1.21
  -8 -16   1    4.80    0.97
  -8  16  -1    4.40    1.07
  -8  16  -1    4.73    1.02
   8  16   1    6.50    2.32
   8 -16   2    8.02    1.53
  -8 -16  -2   10.17    1.67
   8  16  -2    9.61    1.17
   8  16   2    8.84    1.42
  -8  16  -2    9.06    1.30
   8 -16  -2    8.57    1.14
   8 -16  -2   10.36    1.26
  -8  16  -2   10.89    1.35
  -8  16  -2    8.08    1.01
  -8  16  -2    7.57    1.44
  -8 -16  -3    0.89    1.11
  -8 -16  -3    0.52    0.95
   8 -16   3    0.44    1.29
   8  16  -3   -0.65    0.75
  -8  16  -3   -1.32    0.97
   8 -16  -3    1.04    1.48
  -8  16  -3    0.69    1.08
  -8  16  -3    0.30    0.73
  -8  16  -3    0.32    0.65
   8 -16  -3   -0.29    0.74
   8  16  -4    0.32    0.78
  -8 -16  -4   -0.69    1.29
  -8  16  -4    1.05    1.31
   8 -16  -4    1.72    0.75
  -8  16  -4    0.08    1.03
   8 -16  -4    0.25    1.06
  -8  16  -4    0.19    0.79
   9 -16   0    0.83    0.72
  -9  16   0    0.37    1.82
   9 -16   0    1.90    0.94
   9 -16   0    0.91    1.52
  -9 -16   0    1.27    0.81
   9  16   0    1.45    0.91
   9  16   0   -0.55    1.43
   9  16  -1   -1.42    3.30
   9 -16   1    7.51    1.30
   9  16  -1    5.70    1.06
   9 -16   1    3.96    1.53
   9 -16   1    5.85    1.36
  -9 -16  -1    5.26    1.17
   9  16   1    2.43    1.34
   9 -16  -1    6.64    1.15
   9  16   1    7.77    2.25
  -9  16  -1    6.75    1.75
  -9  16  -1    6.98    1.28
   9 -16  -1    7.12    1.11
  -9  16  -1    5.07    1.09
   9 -16   2    2.15    1.47
  -9 -16  -2    3.11    1.13
   9  16  -2    5.01    0.97
  -9  16  -2    3.31    0.95
  -9  16  -2    1.98    0.82
  -9  16  -2    4.40    1.23
   9 -16  -2    3.46    0.93
   9  16   2    3.01    1.41
   9 -16  -2    4.38    0.89
  -9 -16  -3    2.69    1.24
   9  16  -3    3.78    0.88
   9 -16  -3    3.51    0.83
  -9  16  -3    2.25    0.89
  -9  16  -3    5.35    1.43
   9 -16  -3    4.12    0.87
  -9  16  -3    2.22    0.79
  -9 -16  -4    0.18    1.15
  -9  16  -4    0.23    0.60
  -9  16  -4    0.01    1.19
   9 -16  -4    0.97    0.68
  -9  16  -4    1.60    0.72
  10  16   0    1.97    0.94
  10 -16   0    1.18    0.97
 -10 -16   0    0.67    0.74
 -10  16   0    0.22    0.72
  10 -16   0    0.18    0.68
  10  16  -1    1.64    0.81
  10 -16   1    0.90    2.11
 -10 -16  -1    1.16    0.93
  10 -16   1    1.47    0.77
  10 -16  -1    0.27    0.89
 -10  16  -1    2.82    1.00
 -10  16  -1    0.40    0.66
  10  16   1   -0.07    1.39
  10 -16  -1    1.91    0.69
  10  16  -2    4.49    0.93
 -10 -16  -2    3.89    1.18
  10 -16  -2    3.81    0.83
 -10  16  -2    5.57    1.24
 -10  16  -2    4.15    0.94
 -10  16  -2    6.36    1.15
  10 -16  -2    3.68    0.89
 -10 -16  -3    1.30    0.99
  10  16  -3    0.57    0.72
  10 -16  -3    0.47    0.79
  10 -16  -3    1.59    0.69
 -10  16  -3    0.15    1.04
 -10  16  -3    0.57    0.64
  11 -16   0   -0.69    1.08
  11 -16   0    1.43    0.67
  11  16   0   -0.48    1.60
 -11 -16  -1    1.48    0.91
  11  16  -1    0.31    1.52
  11 -16   1    2.98    1.30
 -11  16  -1    2.79    0.94
  11 -16  -1    3.74    0.76
  11 -16  -1    0.40    1.34
 -11 -16  -2    0.50    0.81
 -11  16  -2    1.17    0.81
 -11  16  -2   -0.13    0.57
  11 -16  -2    0.70    0.60
 -11 -16  -3   -0.32    0.98
 -11  16  -3    1.53    0.82
  11 -16  -3    1.41    0.64
 -11  16  -3    1.13    0.99
  12 -16   0    1.63    0.85
  12  16   0    2.25    0.89
  12 -16  -1    1.17    0.57
   0  17   0    0.97    0.66
   0  17   0    2.08    1.14
   0 -17   0   -1.23    0.82
   0  17   0   -0.44    0.97
   0  17   0   -0.82    0.94
   0 -17   0    1.23    0.90
   0  17   0   -0.15    0.75
   0  17   0   -0.08    0.75
   0 -17   0   -0.49    0.63
   0  17  -1    1.74    0.98
   0  17   1    0.79    0.75
   0  17  -1   -0.03    0.58
   0 -17  -1    1.76    1.18
   0  17  -1    1.83    0.78
   0  17   1    0.12    0.89
   0  17  -1    3.87    1.31
   0  17  -1    0.98    0.94
   0 -17  -1   -0.02    0.67
   0  17   1    1.75    0.76
   0  17  -1    1.98    0.92
   0  17   2    9.54    1.38
   0 -17  -2    9.30    1.16
   0  17  -2    9.14    1.40
   0  17  -2    9.72    1.20
   0 -17  -2    9.67    2.26
   0 -17   2   10.09    0.95
   0 -17  -2   10.11    1.40
   0  17  -2   11.47    1.15
   0  17  -2    9.83    1.56
   0 -17  -2    9.54    1.14
   0  17  -2    9.10    1.48
   0  17  -3   -0.14    1.23
   0 -17  -3    0.63    0.78
   0 -17  -3    0.44    1.11
   0 -17   3    0.14    0.74
   0  17  -3    0.74    0.72
   0 -17  -3    0.87    0.66
   0  17  -3    0.42    1.23
   0  17  -3    1.20    0.78
   0  17  -3    0.69    1.10
   0  17  -4   -0.08    1.88
   0  17  -4    2.58    1.47
   0 -17  -4    1.60    0.86
   0  17  -4    4.25    1.72
   0 -17  -4    1.89    0.85
   0 -17   4    3.47    0.81
   0  17  -4    1.45    0.83
   0  17  -4    3.28    0.97
   0  17  -5    3.04    0.86
   0 -17  -5    1.97    0.87
   0  17  -5    1.47    0.83
   0 -17  -5    1.40    0.77
   0 -17  -6    4.59    0.81
  -1  17   0    2.40    1.09
  -1  17   0    1.94    1.09
  -1  17   0    1.16    0.70
  -1  17   0    2.98    1.30
   1  17   0    3.58    1.15
   1 -17   0    3.18    0.80
   1  17   0    2.04    0.88
   1  17   0    2.32    1.00
  -1 -17   0    0.96    0.74
  -1 -17   0    1.68    1.65
   1  17   0    2.28    1.16
   1  17   0    1.43    0.76
   1  17   0    3.00    1.18
  -1 -17  -1   19.43    1.88
   1  17  -1   15.87    2.21
   1  17  -1   18.88    1.62
   1  17  -1   19.72    1.85
   1  17  -1   18.24    1.92
  -1  17   1   20.32    2.06
   1  17  -1   15.11    1.37
  -1  17   1   16.56    1.65
  -1 -17  -1   15.43    1.37
   1  17  -1   15.90    1.18
  -1 -17  -1   14.68    1.26
  -1  17  -1   17.85    1.41
   1 -17  -1   17.84    1.32
   1  17   1   18.24    1.63
  -1  17  -1   22.61    2.25
  -1  17  -1   18.92    1.80
  -1 -17   1   17.36    1.54
   1  17   1   18.17    2.13
  -1  17  -1   16.87    1.25
   1  17   1   18.26    1.48
   1 -17  -1   18.76    2.40
   1  17   1   20.46    2.12
   1 -17  -1   16.06    1.31
  -1 -17  -2    1.33    0.90
  -1 -17  -2   -2.44    1.57
  -1 -17  -2    0.32    0.68
   1 -17   2    1.86    0.83
   1  17  -2    1.65    0.80
  -1  17   2    1.08    0.87
   1  17  -2    2.12    0.85
  -1 -17  -2    1.65    0.72
   1  17  -2    0.82    0.93
   1  17  -2    0.09    1.14
  -1  17   2    1.03    0.90
  -1  17  -2    0.79    1.03
   1 -17  -2    1.45    0.76
   1 -17  -2    0.97    0.64
  -1  17  -2   -0.42    1.52
  -1  17  -2    1.38    1.14
  -1  17  -2    1.99    0.73
   1  17   2    0.49    0.53
   1 -17  -2    0.37    0.81
  -1 -17   2    1.13    0.77
  -1  17  -2    1.42    0.77
  -1 -17  -3    6.22    1.36
  -1 -17  -3    4.44    0.94
   1  17  -3    9.03    1.23
   1  17  -3   11.90    1.90
   1  17  -3    7.51    1.60
   1  17  -3    9.77    1.66
   1  17  -3    6.17    1.02
  -1  17  -3    6.63    1.12
  -1  17  -3    8.43    1.53
  -1  17  -3    7.28    1.13
   1 -17  -3    7.32    1.55
  -1  17  -3    6.03    1.49
  -1  17  -3    8.67    1.93
   1 -17  -3    7.23    1.12
   1 -17  -3    5.95    1.06
  -1 -17   3    7.03    1.15
   1  17  -4   33.39    3.00
  -1 -17  -4   33.00    2.09
  -1 -17  -4   33.14    2.94
   1 -17   4   31.57    1.79
   1  17  -4   31.86    1.94
  -1 -17  -4   31.52    2.01
   1  17  -4   34.62    1.86
  -1  17  -4   33.50    3.12
  -1  17  -4   30.11    3.02
   1 -17  -4   33.21    1.97
  -1  17  -4   33.54    3.03
   1 -17  -4   27.73    1.89
  -1  17  -4   29.87    1.99
   1  17  -5    8.30    1.18
  -1 -17  -5    5.49    0.97
   1  17  -5    6.82    0.98
  -1 -17  -5    5.24    1.12
  -1  17  -5    6.70    1.01
   1 -17  -5    5.88    0.95
   1 -17  -5    4.81    1.00
  -1 -17  -6   -0.30    0.57
   1 -17  -6   -0.04    0.62
   2 -17   0   -1.22    0.63
  -2  17   0   -0.10    0.67
  -2 -17   0   -0.49    0.79
   2  17   0    1.10    1.05
  -2  17   0    0.43    0.65
   2 -17   0   -0.24    0.54
   2  17   0    0.48    1.18
  -2  17   0   -3.28    1.39
   2  17   0   -0.27    1.25
   2  17   0    0.19    0.57
  -2  17   0    0.49    0.95
  -2  17   1    7.84    1.37
  -2 -17  -1    9.03    1.19
   2  17  -1    8.53    1.28
  -2  17   1    9.54    1.25
  -2 -17  -1   10.99    1.10
   2  17  -1    7.67    1.13
   2 -17   1   10.46    1.07
   2  17  -1    7.37    0.96
   2  17  -1   10.44    1.49
  -2 -17  -1    7.88    1.11
  -2 -17  -1   11.10    1.69
   2  17  -1   12.38    2.20
   2  17   1   10.68    1.88
  -2  17  -1   10.42    1.62
  -2  17  -1    8.39    1.22
   2  17   1    9.18    1.33
   2  17   1    9.40    1.34
  -2 -17   1    9.20    1.32
   2 -17  -1   12.21    1.15
  -2  17  -1   10.01    1.73
  -2  17  -1    8.80    1.18
  -2  17  -1    9.78    1.12
   2 -17  -1    7.57    1.31
  -2  17  -1   11.90    1.77
  -2 -17  -2   43.65    2.20
   2 -17   2   40.74    2.68
  -2 -17  -2   40.04    2.30
   2  17  -2   43.40    2.82
   2  17  -2   36.63    2.47
   2  17  -2   40.04    1.94
  -2  17   2   35.16    2.29
   2  17  -2   38.41    2.06
  -2 -17  -2   41.55    2.08
  -2  17   2   37.76    2.27
   2  17  -2   40.31    2.76
  -2 -17  -2   36.48    2.91
  -2 -17   2   41.42    2.14
   2  17   2   42.50    1.97
  -2  17  -2   40.98    2.47
  -2  17  -2   40.50    1.91
  -2  17  -2   39.92    2.78
  -2  17  -2   43.50    3.76
  -2  17  -2   38.52    2.11
   2 -17  -2   38.19    2.02
  -2  17  -2   42.36    2.29
   2 -17  -2   41.26    2.46
   2 -17  -2   39.13    2.08
  -2  17  -2   34.87    2.58
   2  17  -3   39.30    2.11
  -2 -17  -3   41.50    2.53
   2  17  -3   41.02    2.00
  -2 -17  -3   38.39    2.23
   2  17  -3   36.82    3.15
   2  17  -3   37.27    2.76
   2 -17  -3   35.04    2.03
   2 -17  -3   34.14    2.81
  -2  17  -3   36.94    1.93
  -2  17  -3   38.88    2.89
  -2  17  -3   35.42    2.58
  -2  17  -3   41.02    3.15
  -2  17  -3   39.87    5.62
  -2 -17  -4   15.65    1.54
   2  17  -4   13.41    2.86
   2  17  -4   15.31    1.47
   2  17  -4   16.41    2.81
  -2 -17  -4   15.16    1.58
  -2 -17  -4   17.13    2.00
   2  17  -4   14.96    1.29
  -2  17  -4   16.33    2.29
   2 -17  -4   16.08    1.48
  -2  17  -4   16.60    1.48
   2 -17  -4   15.43    1.49
  -2  17  -4   17.74    1.45
  -2 -17  -5    4.07    1.11
  -2 -17  -5    3.10    0.82
   2  17  -5    4.59    0.86
  -2  17  -5    3.25    0.85
   2 -17  -5    3.85    0.87
  -2  17  -5    4.35    1.00
   2 -17  -5    2.81    0.88
  -2 -17  -6    2.70    0.73
   2 -17  -6    2.99    1.21
  -2  17  -6    1.04    0.65
   3  17   0   15.15    1.81
  -3  17   0   12.65    1.21
   3  17   0   18.10    1.31
  -3  17   0   14.82    1.47
   3 -17   0   15.30    1.28
  -3 -17   0   14.99    1.73
   3  17   0   15.04    1.82
  -3  17   0   13.66    1.62
   3  17   0   16.73    1.79
   3  17   0   12.31    2.32
   3 -17   0   14.23    1.22
  -3 -17  -1    1.92    1.05
  -3  17   1    0.70    0.76
   3  17  -1    1.91    0.91
  -3 -17  -1    2.06    0.78
   3 -17   1    3.03    0.78
   3  17  -1    2.56    1.27
   3  17  -1    2.34    1.16
   3 -17   1    0.06    0.98
   3  17  -1    0.12    2.10
  -3 -17  -1    3.51    1.09
  -3  17   1    1.20    0.83
   3  17  -1    2.23    0.68
   3  17  -1    1.95    1.12
   3  17   1   -0.42    1.33
  -3 -17   1    1.77    1.01
  -3  17  -1    2.14    0.74
  -3  17  -1    4.43    1.73
   3  17   1    1.56    1.03
  -3  17  -1    4.18    1.21
   3 -17  -1    1.98    0.65
  -3  17  -1    1.82    0.89
  -3  17  -1    2.09    1.18
   3  17   1    2.69    1.12
   3  17  -2   10.78    1.83
   3 -17   2   11.12    1.37
   3  17  -2   13.63    1.20
   3  17  -2   12.93    1.44
  -3 -17  -2   13.91    1.51
  -3 -17  -2   13.33    1.35
  -3  17   2   10.82    1.48
   3  17  -2   11.79    1.54
  -3 -17  -2   10.49    1.74
  -3  17   2   11.62    1.51
  -3 -17  -2   12.97    1.47
  -3  17  -2    8.91    1.85
  -3  17  -2   16.01    1.43
  -3  17  -2   12.75    1.64
  -3  17  -2   11.80    1.34
   3 -17  -2   12.82    1.29
  -3  17  -2   15.33    1.58
  -3  17  -2   11.70    1.90
  -3 -17   2   11.88    1.36
   3  17   2   10.28    1.28
   3 -17  -2   13.33    1.36
  -3  17  -2   10.19    1.93
  -3 -17  -3    5.54    1.06
  -3 -17  -3    4.68    1.16
   3  17  -3    6.22    0.96
   3  17  -3    7.04    1.49
   3  17  -3    8.32    2.23
  -3 -17  -3    5.97    1.18
   3  17  -3    6.51    1.42
  -3  17  -3    4.80    1.02
  -3  17  -3    5.97    1.09
   3 -17  -3    5.62    0.98
  -3 -17   3    6.56    0.93
   3 -17  -3    4.82    0.98
  -3  17  -3    7.85    1.57
  -3  17  -3   12.35    2.34
  -3  17  -3    3.88    1.82
  -3 -17  -4    9.26    1.32
   3  17  -4   12.50    1.23
  -3 -17  -4    9.20    1.59
  -3 -17  -4   10.19    1.21
  -3  17  -4   10.54    1.86
   3 -17  -4   11.69    1.35
   3 -17  -4   10.14    1.28
  -3  17  -4   11.49    1.30
  -3  17  -4   12.25    1.41
  -3 -17  -5    0.33    0.89
   3  17  -5    1.37    0.69
  -3 -17  -5    0.16    0.67
   3 -17  -5    0.27    0.77
  -3  17  -5    1.07    0.93
   3 -17  -5    0.10    0.69
  -3  17  -5    0.20    0.67
   4 -17   0    2.12    0.82
   4 -17   0    1.04    0.69
   4  17   0    2.59    0.77
   4  17   0    1.25    1.17
   4  17   0    1.63    0.99
  -4  17   0    0.57    0.94
  -4  17   0    2.08    0.74
  -4  17   0    2.14    0.77
   4  17   0    1.29    1.16
  -4 -17   0    2.14    0.98
   4 -17   1   10.08    1.24
   4  17  -1    4.88    1.18
  -4 -17  -1    5.70    0.99
  -4  17   1    7.23    1.15
   4  17  -1    7.32    1.50
  -4 -17  -1    7.81    1.47
   4 -17   1    7.49    1.01
  -4  17   1    7.62    1.23
  -4  17  -1    8.07    1.20
   4  17   1    5.27    1.67
  -4  17  -1    7.25    1.12
  -4  17  -1    8.62    1.32
  -4  17  -1    5.66    1.37
   4 -17  -1    5.65    0.96
   4  17   1    6.33    1.27
   4 -17  -1    7.05    1.05
  -4 -17   1    7.55    1.19
   4  17   1    7.61    1.07
  -4  17   2   12.23    1.55
  -4 -17  -2   13.48    1.34
  -4  17   2    9.04    1.19
   4  17  -2   12.77    2.10
  -4 -17  -2   12.51    1.46
  -4 -17  -2   11.48    1.86
   4  17  -2   11.30    1.60
   4  17  -2   10.64    1.21
   4  17  -2   13.18    1.77
  -4 -17  -2   15.05    1.57
   4 -17   2   14.90    1.65
  -4  17  -2   12.63    1.40
   4  17   2   11.72    1.40
  -4  17  -2   15.10    1.90
  -4 -17   2   14.35    1.46
   4 -17  -2   10.01    1.25
  -4  17  -2   10.14    2.31
   4 -17  -2   10.70    1.23
  -4  17  -2   12.52    1.59
  -4  17  -2   12.06    2.11
  -4  17  -2   11.06    1.64
   4  17  -3    8.91    2.35
   4  17  -3   10.30    1.98
  -4 -17  -3    9.39    1.21
  -4 -17  -3    7.65    2.00
   4  17  -3    6.60    1.44
  -4 -17  -3    8.57    1.37
  -4  17  -3    7.58    1.21
   4 -17  -3    6.46    1.06
  -4  17  -3    6.67    1.26
  -4  17  -3    5.69    1.69
  -4  17  -3    6.99    2.27
  -4  17  -3   10.06    1.62
  -4 -17  -4    3.49    1.59
   4  17  -4    2.70    0.80
  -4 -17  -4    2.91    1.21
  -4 -17  -4    2.77    1.09
  -4  17  -4    1.39    1.02
  -4  17  -4    3.02    0.88
  -4  17  -4    4.81    2.15
   4 -17  -4    3.40    0.97
  -4  17  -4    4.11    1.05
  -4  17  -4    0.68    1.28
  -4 -17  -5    5.28    0.92
   4  17  -5    4.33    0.82
  -4 -17  -5    4.79    1.33
   4 -17  -5    1.71    0.79
  -4  17  -5    3.33    0.79
   4 -17  -5    3.92    0.85
   5  17   0    0.86    1.06
   5  17   0    3.96    0.94
  -5 -17   0    2.92    1.06
  -5  17   0    3.06    0.93
   5  17   0    3.18    1.30
   5 -17   0    1.26    0.84
   5  17   0    1.97    1.07
   5 -17   0    2.62    0.76
  -5  17   0    2.14    1.02
  -5  17   0    4.29    1.04
  -5  17   0    2.80    0.52
   5  17  -1   10.53    1.21
   5  17  -1    9.05    1.66
   5 -17   1   14.57    1.54
  -5 -17  -1   10.14    1.84
   5 -17   1   11.51    1.18
   5  17  -1   11.97    1.68
  -5 -17  -1    9.49    1.13
   5  17  -1   10.62    1.68
   5  17   1   15.84    2.42
   5  17   1    9.21    1.21
  -5  17  -1    9.19    1.23
   5  17   1   10.02    1.52
  -5  17  -1   11.81    2.39
   5 -17  -1   11.17    1.97
  -5  17  -1   11.57    1.59
  -5 -17   1    8.63    2.20
   5 -17  -1    9.67    1.23
  -5 -17  -2    7.82    1.13
  -5  17   2    8.69    1.86
   5  17  -2    6.69    1.40
   5 -17   2    6.82    1.30
   5  17  -2   12.53    2.24
  -5 -17  -2    8.61    1.26
   5  17  -2    6.28    1.50
   5  17  -2    8.81    1.15
   5  17   2    5.55    1.18
  -5  17  -2    7.68    1.18
   5 -17  -2    5.97    1.23
  -5  17  -2    7.63    1.25
   5 -17  -2    8.23    1.18
  -5 -17  -3   16.44    1.48
  -5 -17  -3   11.74    1.55
   5  17  -3   17.51    1.90
  -5 -17  -3    9.38    1.73
   5  17  -3   12.38    1.33
   5 -17   3   12.94    1.23
   5  17  -3    7.33    1.54
  -5  17  -3   13.79    1.71
  -5  17  -3   12.92    2.09
  -5  17  -3   11.48    1.42
  -5  17  -3   17.53    3.62
  -5  17  -3   13.91    1.48
   5 -17  -3   10.38    1.23
   5 -17  -3   11.73    1.34
   5  17  -4    3.83    0.86
  -5 -17  -4    3.00    1.35
  -5 -17  -4    2.26    2.28
  -5 -17  -4    2.53    2.09
  -5 -17  -4    5.44    0.98
   5 -17  -4    3.82    0.94
  -5  17  -4    2.96    1.81
  -5  17  -4    3.25    0.91
  -5  17  -4    4.16    1.06
   5 -17  -4    2.85    0.84
  -5 -17  -5    6.61    0.95
   5  17  -5    5.04    0.91
  -5  17  -5    7.47    1.74
   5 -17  -5    4.46    0.82
   5 -17  -5    4.64    0.93
  -6  17   0    2.57    0.95
  -6  17   0    3.29    0.92
   6  17   0    3.95    1.02
   6 -17   0    6.26    1.15
   6 -17   0    4.06    0.89
   6  17   0    3.67    1.54
   6  17   0    5.02    1.50
  -6  17   0    5.38    1.17
  -6 -17   0    4.30    1.14
   6  17   0    4.99    1.48
   6  17  -1   19.89    2.33
   6 -17   1   15.93    1.57
   6  17  -1   18.91    2.05
   6  17  -1   16.62    1.45
   6  17  -1   18.48    2.34
   6  17   1   15.82    1.54
   6 -17  -1   19.85    1.55
  -6  17  -1   18.30    1.36
   6  17   1   19.04    2.45
   6 -17  -1   16.20    2.20
   6  17   1   13.27    1.79
   6 -17   2   23.32    2.01
   6  17  -2   20.17    2.29
  -6 -17  -2   16.19    1.95
   6  17  -2   15.32    2.11
  -6  17   2   19.69    1.79
   6  17  -2   22.67    2.12
   6  17  -2   19.67    2.82
  -6 -17  -2   21.03    1.67
  -6 -17   2   23.27    1.41
  -6  17  -2   23.42    1.69
  -6  17  -2   23.79    2.15
   6 -17  -2   22.27    1.61
  -6  17  -2   19.15    1.71
   6  17   2   22.41    2.00
   6 -17   3    9.33    1.24
   6  17  -3    9.56    1.15
  -6 -17  -3   12.62    1.86
  -6 -17  -3    9.03    1.37
   6 -17  -3   11.15    1.33
  -6  17  -3   11.46    1.32
  -6  17  -3   11.99    1.49
  -6  17  -3   10.00    1.76
  -6  17  -3   12.09    1.50
   6 -17  -3    8.92    1.14
   6  17  -4    4.40    0.83
  -6 -17  -4    7.99    2.05
  -6  17  -4    1.88    0.91
  -6  17  -4    4.84    2.09
  -6  17  -4    1.74    0.72
   6 -17  -4    3.27    0.88
   6 -17  -4    3.31    0.83
  -6  17  -4   -0.09    1.53
   6 -17  -5    2.23    0.73
  -6  17  -5    2.52    0.65
   7 -17   0   25.72    1.79
   7  17   0   22.90    2.66
  -7  17   0   26.81    1.93
  -7  17   0   23.22    1.77
   7  17   0   26.71    1.79
  -7  17   0   21.75    1.87
   7  17   0   29.06    2.60
   7 -17   0   26.81    1.73
   7  17   0   20.30    2.30
  -7 -17   0   24.45    1.98
   7 -17   1    4.14    0.95
   7  17  -1    4.45    1.74
  -7 -17  -1    3.92    1.20
   7 -17   1    5.57    1.50
   7  17  -1    3.58    1.40
   7  17  -1    5.40    1.12
  -7  17   1    2.47    1.02
   7  17  -1    3.97    1.37
   7 -17   1    5.69    1.37
  -7  17   1    2.86    0.90
  -7  17  -1    4.29    1.21
   7 -17  -1    4.75    0.97
  -7  17  -1    5.18    1.04
   7  17   1    4.16    1.12
   7  17   1    6.32    1.52
   7  17   1    4.88    2.37
  -7  17  -1    5.24    1.17
   7 -17  -1    5.12    1.08
   7  17  -2    4.83    1.40
   7  17  -2    7.21    1.74
  -7 -17  -2    3.10    1.25
   7  17  -2    5.46    0.95
   7 -17   2    3.44    1.22
  -7 -17  -2    5.65    1.45
   7 -17  -2    5.13    1.01
  -7  17  -2    5.48    1.03
  -7  17  -2    6.47    1.55
  -7  17  -2    6.31    1.09
   7  17   2    3.45    1.22
   7 -17  -2    5.20    0.98
  -7  17  -2    5.72    1.15
   7 -17   3    3.90    1.50
   7  17  -3    4.86    1.03
  -7 -17  -3    2.85    0.97
  -7 -17  -3    6.82    1.63
  -7  17  -3    3.16    1.04
  -7  17  -3    2.46    0.92
  -7  17  -3    5.86    1.50
   7 -17  -3    4.98    1.37
   7 -17  -3    4.23    0.97
  -7  17  -3    3.77    1.25
  -7 -17  -4    1.35    1.49
   7  17  -4    1.00    0.67
   7 -17  -4    0.30    0.76
   7 -17  -4    0.60    0.64
  -7  17  -4    3.53    1.67
  -7  17  -4    0.27    0.89
  -7  17  -5    1.20    0.65
  -8  17   0    3.90    1.12
   8  17   0    4.60    1.61
   8  17   0    4.32    2.57
  -8  17   0    3.19    1.02
   8 -17   0    3.35    1.05
  -8 -17   0    2.99    0.98
   8 -17   0    5.02    1.63
   8 -17   0    3.82    0.90
   8  17   0    2.36    0.86
   8  17  -1   35.15    3.38
   8 -17   1   32.79    2.24
   8 -17   1   36.12    1.94
  -8  17   1   32.61    2.17
  -8 -17  -1   35.79    2.37
   8 -17   1   34.37    2.80
   8  17  -1   34.99    2.28
  -8  17   1   38.99    1.75
   8 -17  -1   40.82    2.12
   8  17   1   33.99    2.59
   8  17   1   31.34    2.45
  -8  17  -1   39.02    2.44
  -8 -17   1   36.21    1.89
   8 -17  -1   34.99    1.97
  -8  17  -1   33.86    2.19
  -8  17  -1   38.92    2.15
   8 -17   2    1.02    1.12
   8  17  -2    1.57    0.86
  -8 -17  -2    3.63    2.31
   8  17   2    2.93    1.18
  -8  17  -2    0.99    1.21
   8 -17  -2    2.19    0.84
  -8 -17  -3    2.94    1.22
   8  17  -3    2.56    0.75
  -8  17  -3    2.40    0.78
  -8  17  -3    2.06    0.85
  -8  17  -3    3.46    1.23
   8 -17  -3    4.06    0.95
   8 -17  -3    3.39    0.84
   8  17  -4   -0.04    0.68
  -8 -17  -4    0.30    1.14
   8 -17  -4    0.44    0.98
  -8  17  -4    0.47    0.74
   8 -17  -4    0.22    0.60
  -8  17  -4   -0.32    1.33
  -8  17  -4    1.10    0.59
   9  17   0    6.55    1.78
   9 -17   0    6.12    2.44
  -9  17   0    4.31    1.14
   9 -17   0    2.56    1.05
  -9 -17   0    6.60    1.34
   9  17   0    4.07    1.13
   9 -17   1   11.33    2.12
   9  17  -1   13.04    3.35
   9  17  -1   12.71    1.30
  -9 -17  -1   12.84    1.85
  -9  17  -1   21.18    2.81
   9 -17  -1   11.30    1.53
   9  17   1   16.44    2.12
   9  17  -2    2.08    0.82
  -9 -17  -2    2.63    1.14
   9 -17   2    2.14    1.36
   9  17   2    0.66    1.25
  -9  17  -2    2.99    1.12
  -9  17  -2    1.52    0.78
  -9  17  -2    2.05    0.79
   9 -17  -2    0.97    0.75
   9 -17  -2    1.86    0.70
  -9 -17  -3   -0.44    1.03
   9  17  -3    1.63    0.76
  -9  17  -3    1.17    1.13
  -9  17  -3    0.53    0.68
   9 -17  -3    1.21    0.66
   9 -17  -3    1.21    0.82
  -9  17  -3    1.80    0.73
  -9 -17  -4   -1.50    1.18
  -9  17  -4   -0.03    1.09
   9 -17  -4    1.08    0.60
  -9  17  -4    0.61    0.70
  10 -17   0    9.87    1.35
  10 -17   0   10.50    1.17
 -10 -17   0    7.68    0.91
  10  17  -1    1.89    0.88
  10 -17   1    1.43    1.08
 -10 -17  -1    1.89    0.85
  10 -17  -1    1.25    0.68
  10 -17  -1    0.82    0.86
 -10  17  -1    1.43    0.85
 -10 -17  -2    4.04    1.05
  10  17  -2    4.63    0.93
  10 -17  -2    5.35    0.90
 -10  17  -2    3.12    1.34
 -10  17  -2    3.43    0.85
 -10  17  -2    3.12    1.02
  10 -17  -2    4.16    0.89
 -10 -17  -3    0.42    0.91
  10 -17  -3    1.10    0.62
 -10  17  -3    0.77    0.92
 -10  17  -3    0.96    0.64
  11 -17   0    0.56    0.64
 -11 -17  -1    1.45    0.73
  11 -17  -1   -0.05    0.58
 -11  17  -1    0.04    0.11
 -11 -17  -2   -0.42    0.75
 -11  17  -2   -0.07    0.87
  11 -17  -2    0.72    0.53
   0  18   0   38.99    2.55
   0  18   0   43.17    2.22
   0  18   0   39.04    2.25
   0 -18   0   39.73    2.16
   0 -18   0   42.57    1.99
   0 -18   0   45.33    2.57
   0  18   0   41.95    2.79
   0  18  -1   22.77    2.18
   0 -18  -1   20.38    1.50
   0  18  -1   22.15    2.40
   0 -18   1   24.94    1.82
   0 -18  -1   22.40    2.08
   0  18  -1   21.70    1.42
   0  18   1   20.53    1.71
   0  18   1   19.55    1.97
   0  18  -1   20.39    1.54
   0  18  -1   17.21    2.60
   0  18  -1   23.28    2.24
   0 -18  -2   -0.60    0.73
   0 -18  -2   -3.58    1.76
   0  18   2   -0.49    0.80
   0 -18   2    0.24    0.55
   0  18  -2   -0.18    1.00
   0  18  -2   -0.73    0.63
   0  18  -2    1.75    1.13
   0 -18   2    0.58    0.85
   0  18  -2   -1.95    1.84
   0 -18  -2    0.40    0.65
   0  18  -2   -1.32    1.20
   0 -18  -2   -1.49    0.79
   0  18  -2    0.76    0.68
   0 -18  -3   11.86    1.48
   0  18  -3   12.95    1.44
   0 -18  -3   10.30    1.66
   0  18  -3   12.02    1.30
   0  18  -3   11.54    1.99
   0 -18  -3    9.11    1.14
   0  18  -3   14.87    2.14
   0  18  -3   15.96    2.08
   0 -18   3   10.71    1.31
   0 -18  -4    0.53    2.02
   0 -18  -4    3.23    1.01
   0  18  -4    3.60    1.01
   0  18  -4    3.52    2.06
   0  18  -4    2.21    0.86
   0 -18  -4    1.86    0.77
   0 -18   4    4.38    0.86
   0  18  -5    0.51    0.81
   0  18  -5   -0.05    0.69
   0 -18  -5    1.65    0.91
   0 -18  -5    0.36    0.71
   0 -18  -6    0.08    0.59
  -1 -18   0    6.10    0.96
  -1 -18   0    9.87    1.52
   1  18   0   10.60    1.33
   1 -18   0    7.31    0.92
   1  18   0    7.02    1.47
   1  18   0    5.29    1.35
   1 -18   0    5.95    1.07
  -1  18   0    7.37    1.44
   1  18   0    5.85    1.51
   1  18   0    9.85    1.39
   1  18   0    8.30    1.13
  -1  18   0    8.86    1.22
  -1  18   0    8.81    1.24
  -1  18   0    9.28    1.95
   1  18  -1    2.55    1.47
  -1 -18  -1    3.15    0.87
   1  18  -1    0.94    0.69
  -1  18   1    2.40    0.91
   1  18  -1    2.73    1.04
  -1 -18  -1    2.00    0.74
   1  18  -1    2.00    0.88
   1  18  -1    1.23    0.98
  -1 -18  -1    3.35    1.44
  -1  18   1    2.14    1.09
  -1  18  -1    3.06    1.03
  -1  18  -1    3.95    1.40
   1  18   1    1.73    0.80
  -1 -18   1    3.43    1.07
  -1  18  -1    2.87    1.27
   1 -18  -1    1.99    0.77
   1  18   1    2.05    0.92
  -1  18  -1    3.08    0.92
   1  18   1    2.72    1.11
   1 -18  -1    1.14    0.69
  -1  18  -1    2.55    1.30
  -1  18  -1    1.90    0.80
   1 -18  -1    3.62    1.46
   1  18  -2   -0.06    2.33
  -1 -18  -2    4.02    1.04
  -1  18   2    1.57    0.91
   1  18  -2    2.41    1.16
   1 -18   2    3.01    0.77
   1  18  -2    2.73    0.90
  -1 -18  -2    1.78    0.76
   1  18  -2    2.04    0.71
  -1 -18  -2    1.85    0.90
   1  18  -2    0.03    1.11
  -1 -18  -2    2.58    1.60
  -1 -18   2    2.09    0.84
  -1  18  -2    1.00    1.29
  -1  18  -2   -0.21    1.46
   1 -18  -2    2.30    1.04
  -1  18  -2    3.16    0.91
  -1  18  -2    2.08    1.27
  -1  18  -2    2.50    0.80
   1  18   2    2.15    0.59
   1 -18  -2    3.21    1.03
   1 -18  -2    2.05    0.78
  -1  18  -2    0.63    0.91
   1  18  -3   19.38    1.58
   1  18  -3   16.50    2.21
   1  18  -3   15.62    1.34
  -1 -18  -3   16.30    1.52
   1  18  -3   17.78    2.09
  -1 -18  -3   14.60    1.88
  -1 -18  -3   19.81    1.74
  -1  18  -3   10.93    1.99
   1 -18  -3   16.06    1.50
   1 -18  -3   10.52    1.70
  -1  18  -3   14.13    2.10
  -1  18  -3   15.74    1.50
  -1 -18   3   16.18    1.46
  -1  18  -3   18.57    1.57
   1 -18  -3   15.97    1.63
  -1  18  -3   15.11    2.24
  -1 -18  -4    2.19    1.63
  -1 -18  -4    0.94    0.73
   1  18  -4    1.48    0.75
   1  18  -4    2.97    1.68
   1 -18   4    1.48    0.85
  -1 -18  -4    2.45    1.07
   1 -18  -4    1.26    0.88
  -1  18  -4    1.57    0.83
   1 -18  -4    1.27    0.73
  -1  18  -4    2.35    0.86
  -1  18  -4    3.07    1.74
  -1 -18  -5    2.78    0.96
  -1 -18  -5    3.04    0.85
   1  18  -5    3.17    0.82
   1  18  -5    2.55    1.02
  -1  18  -5    2.56    0.86
   1 -18  -5    3.21    0.92
  -1  18  -5    4.34    0.93
   1 -18  -5    2.09    0.79
  -1 -18  -6    0.26    0.57
   1 -18  -6    0.00    0.59
   2  18   0    5.77    1.41
   2 -18   0    2.68    0.94
   2  18   0    3.15    0.88
  -2  18   0    2.83    0.86
   2  18   0    3.84    1.01
   2  18   0    5.36    1.65
   2  18   0    4.48    1.32
  -2  18   0    3.74    1.00
   2 -18   0    4.88    0.92
  -2 -18   0    2.69    1.06
   2  18   0    5.87    1.94
  -2  18   0    3.60    1.19
   2 -18   1   11.56    1.41
  -2  18   1   14.73    0.98
   2  18  -1   11.63    2.15
   2  18  -1   13.72    2.24
  -2 -18  -1   11.12    1.37
  -2  18   1   13.17    1.50
   2  18  -1   13.38    1.72
  -2 -18  -1   14.62    1.33
  -2 -18  -1   16.03    1.98
  -2  18   1   12.16    1.60
  -2 -18  -1   12.50    1.37
   2  18  -1   16.06    1.55
   2  18  -1   14.87    1.25
   2  18  -1   15.37    1.97
  -2  18  -1   16.41    1.47
  -2  18  -1   14.35    2.30
   2  18   1   16.02    1.50
  -2 -18   1   13.73    1.65
   2  18   1   12.91    1.87
   2  18   1   14.72    1.64
  -2  18  -1   17.35    1.41
   2  18   1   13.58    2.22
   2 -18  -1   13.88    2.00
  -2  18  -1   13.49    1.52
   2 -18  -1   14.10    1.31
  -2  18  -1   14.36    1.90
   2 -18  -1   16.43    1.39
  -2  18   2   33.23    2.43
  -2 -18  -2   34.24    2.72
  -2 -18  -2   33.24    2.55
  -2 -18  -2   30.12    2.06
   2  18  -2   30.63    2.34
   2 -18   2   31.22    1.83
   2  18  -2   30.60    2.47
  -2 -18  -2   31.76    2.06
   2  18  -2   32.06    2.45
   2  18  -2   31.74    1.94
  -2  18  -2   31.62    1.79
  -2  18  -2   29.13    2.57
   2 -18  -2   29.94    2.47
  -2  18  -2   32.19    2.24
  -2  18  -2   32.96    2.10
  -2  18  -2   29.49    2.80
   2 -18  -2   35.07    2.01
   2  18   2   31.46    1.72
  -2 -18  -3   28.48    1.86
   2  18  -3   21.78    2.39
  -2 -18  -3   21.55    2.42
   2  18  -3   29.93    1.86
  -2 -18  -3   25.84    2.69
   2  18  -3   30.01    2.67
   2  18  -3   27.86    1.80
   2  18  -3   39.56    5.05
  -2  18  -3   32.58    2.21
   2 -18  -3   26.31    1.81
  -2  18  -3   30.73    1.95
  -2  18  -3   26.95    2.86
   2 -18  -3   24.83    3.77
  -2  18  -3   27.78    2.96
  -2 -18   3   32.50    1.76
  -2  18  -3   27.25    3.12
   2 -18  -3   27.11    1.90
  -2  18  -3   26.10    3.12
  -2 -18  -4    8.21    1.19
  -2 -18  -4    9.54    1.36
   2  18  -4   10.61    1.16
   2 -18   4   10.31    1.88
  -2 -18  -4    6.33    1.51
   2  18  -4    8.26    1.24
  -2  18  -4   13.09    1.41
   2 -18  -4    8.74    1.28
   2 -18  -4    8.13    1.14
  -2  18  -4    8.78    1.24
  -2  18  -4    5.91    1.80
  -2 -18  -5    0.55    0.69
   2  18  -5    2.04    0.72
  -2 -18  -5   -0.71    0.86
   2 -18  -5    0.82    0.85
  -2  18  -5   -0.24    0.67
   2 -18  -5    0.72    0.73
  -2  18  -5    1.12    0.89
   3  18   0    1.03    1.59
   3  18   0    2.38    1.04
   3  18   0    1.39    1.00
  -3 -18   0    1.66    1.05
   3  18   0    2.38    0.86
   3 -18   0    2.29    0.86
   3 -18   0    1.63    0.67
  -3  18   0    1.71    0.78
  -3  18   0    2.23    1.07
  -3  18   0    0.68    0.63
   3  18   0    2.00    1.33
   3  18   0    1.93    1.23
   3  18  -1   42.30    2.05
   3  18  -1   42.99    3.19
  -3 -18  -1   44.61    2.26
  -3 -18  -1   44.35    2.73
  -3  18   1   41.33    2.42
   3  18  -1   43.25    2.37
   3  18  -1   45.70    3.62
  -3 -18  -1   45.73    2.14
  -3  18   1   45.77    2.44
   3 -18   1   47.48    2.14
   3  18  -1   44.90    2.78
  -3  18  -1   46.45    2.27
  -3  18  -1   43.79    2.75
  -3 -18   1   44.07    2.45
   3 -18  -1   45.65    2.26
  -3  18  -1   44.10    2.31
  -3  18  -1   44.16    3.43
   3  18   1   43.80    3.23
   3  18   1   45.65    2.49
  -3  18  -1   45.44    2.36
   3 -18  -1   45.00    2.22
   3  18  -2   16.27    2.25
  -3  18   2   12.25    1.64
   3  18  -2   14.05    1.82
  -3 -18  -2   12.89    1.52
  -3 -18  -2   14.79    1.34
   3  18  -2   15.98    1.60
  -3  18   2   14.52    1.61
  -3 -18  -2   13.32    1.58
   3 -18   2   10.32    1.30
   3  18  -2   14.43    1.33
  -3  18  -2   15.83    2.58
  -3 -18   2   11.15    1.31
  -3  18  -2   13.06    1.66
   3 -18  -2   12.45    1.38
  -3  18  -2   11.15    1.34
   3 -18  -2   13.78    1.33
  -3  18  -2   17.14    2.46
  -3  18  -2   13.18    1.44
   3  18   2   14.37    1.36
  -3 -18  -3    4.94    2.07
   3  18  -3    2.51    3.08
   3  18  -3    4.89    1.39
   3  18  -3    2.31    1.38
  -3 -18  -3    5.82    1.25
   3  18  -3    5.11    1.06
  -3 -18  -3    6.23    1.36
  -3 -18  -3    4.52    0.97
  -3  18  -3    3.38    1.36
  -3  18  -3   12.91    3.04
   3 -18  -3    4.16    0.99
  -3  18  -3    4.62    1.28
  -3  18  -3    4.72    1.88
   3 -18  -3    5.59    1.01
  -3 -18   3    4.66    0.87
  -3  18  -3    6.49    1.14
  -3  18  -3    6.24    2.15
  -3  18  -3    4.92    1.03
  -3 -18  -4    2.29    1.13
  -3 -18  -4    1.54    1.04
  -3 -18  -4    2.95    1.35
   3  18  -4    2.51    0.82
   3 -18  -4    2.09    1.05
  -3  18  -4    2.29    0.98
   3 -18  -4    2.56    0.87
  -3  18  -4    1.65    0.92
  -3  18  -4    1.93    1.44
   3  18  -5    1.49    0.72
  -3 -18  -5    0.93    0.99
  -3 -18  -5    1.72    0.77
   3 -18  -5    1.46    0.85
   3 -18  -5    2.19    0.78
  -3  18  -5    2.38    0.76
   4  18   0    9.26    1.42
  -4 -18   0   10.12    1.49
   4 -18   0    8.01    1.06
  -4  18   0    5.27    1.20
   4  18   0    9.32    1.19
   4  18   0   10.50    1.66
  -4  18   0    9.72    0.99
  -4  18   0   10.16    1.36
   4  18   0    9.91    1.74
   4 -18   0    9.56    1.24
   4  18  -1   27.11    3.59
  -4  18   1   24.90    2.11
  -4 -18  -1   31.73    1.86
   4  18  -1   33.21    1.83
   4 -18   1   34.55    1.77
  -4 -18  -1   29.35    2.53
   4  18  -1   29.01    2.54
   4 -18   1   23.66    2.04
   4  18  -1   29.80    2.46
  -4  18   1   29.47    2.13
   4  18   1   29.98    2.19
   4 -18  -1   33.19    1.96
   4  18   1   33.71    3.01
  -4  18  -1   30.16    2.07
  -4  18  -1   30.59    2.17
  -4 -18   1   31.32    2.33
  -4  18  -1   34.95    1.99
   4 -18  -1   34.40    2.05
   4 -18   2    7.57    1.23
  -4 -18  -2    9.46    1.59
   4  18  -2    9.06    1.56
   4  18  -2   12.83    2.15
  -4 -18  -2   10.35    1.37
   4  18  -2   10.16    1.76
  -4  18   2    7.66    1.31
   4  18  -2    8.25    1.11
  -4 -18   2    9.21    1.35
  -4  18  -2    8.58    2.76
   4 -18  -2    9.52    1.26
  -4  18  -2    9.46    1.27
   4 -18  -2    7.54    1.11
   4  18   2    8.20    1.64
  -4  18  -2    7.39    1.26
   4  18  -3    8.14    1.66
  -4 -18  -3    6.83    2.01
   4  18  -3    8.17    1.16
  -4 -18  -3    7.47    1.53
  -4 -18  -3    5.05    1.29
   4  18  -3    6.95    1.67
  -4 -18  -3    8.10    1.16
  -4  18  -3    8.05    1.30
  -4  18  -3    9.92    1.38
  -4  18  -3    9.19    2.00
  -4  18  -3    5.89    1.37
   4 -18  -3    6.51    1.04
   4 -18  -3    6.99    1.06
  -4  18  -3    7.08    1.11
  -4  18  -3    0.38    2.47
  -4 -18  -4    6.43    1.24
   4  18  -4   10.89    1.22
  -4 -18  -4    9.38    1.67
  -4 -18  -4    8.77    1.15
  -4  18  -4    3.29    2.21
   4 -18  -4    6.44    1.11
  -4  18  -4    9.99    2.14
  -4  18  -4    8.23    1.15
   4 -18  -4    7.20    1.04
  -4  18  -4    9.48    1.35
   4  18  -5    1.34    0.79
  -4 -18  -5    0.69    0.79
   4 -18  -5    1.36    0.69
   4 -18  -5    0.60    0.82
  -4  18  -5    1.24    0.79
   5  18   0    0.13    1.29
  -5 -18   0   -0.74    0.91
   5  18   0    0.55    0.82
   5  18   0    0.69    1.37
   5 -18   0    0.46    0.69
   5 -18   0    0.34    0.86
  -5  18   0    0.27    0.92
   5  18   0   -0.41    0.99
  -5  18   0   -0.05    0.74
   5 -18   1    5.45    0.99
   5  18  -1    6.10    1.59
   5  18  -1    3.58    1.34
   5  18  -1    6.10    1.08
   5  18  -1    5.93    1.66
  -5 -18  -1    4.75    1.76
   5 -18   1    4.56    1.29
  -5  18  -1    4.12    1.71
  -5  18  -1    4.56    1.18
   5  18   1    4.79    1.32
   5  18   1    3.34    2.12
   5  18  -2   16.73    2.20
  -5 -18  -2   17.28    2.20
   5 -18   2   11.27    1.49
  -5 -18  -2   17.46    1.61
   5  18  -2   10.25    2.31
  -5  18   2   15.81    1.77
   5  18  -2   13.22    1.66
  -5 -18   2   14.45    1.37
   5  18   2   14.24    1.63
  -5  18  -2   14.03    1.62
  -5  18  -2   12.82    1.44
  -5  18  -2   13.54    1.84
  -5  18  -2   16.63    1.71
   5 -18  -2   15.11    1.93
   5 -18  -2   10.73    1.25
  -5 -18  -3    4.68    1.49
   5  18  -3    5.85    1.00
  -5 -18  -3    5.61    1.14
  -5 -18  -3    4.83    1.69
  -5  18  -3    6.09    1.58
   5 -18  -3    6.31    1.07
   5 -18  -3    6.82    1.09
  -5  18  -3    8.31    1.49
  -5  18  -3    5.70    1.03
  -5  18  -3    3.72    1.01
  -5 -18  -4    1.97    0.94
   5  18  -4    0.77    0.75
  -5 -18  -4   -0.15    2.61
   5 -18  -4   -0.91    0.72
  -5  18  -4   -2.03    1.91
  -5  18  -4    0.74    0.67
   5 -18  -4   -0.13    0.68
  -5  18  -4    0.80    1.24
  -5  18  -4    1.45    1.38
  -5  18  -5    1.23    0.57
   5 -18  -5    1.13    0.65
  -6  18   0   37.96    2.27
   6  18   0   37.85    3.18
   6  18   0   32.51    2.84
   6  18   0   26.81    3.06
   6  18   0   34.12    2.01
   6 -18   0   35.72    2.23
  -6  18   0   34.92    2.16
  -6 -18   0   37.31    2.39
  -6 -18  -1    4.93    1.27
   6  18  -1    5.71    1.42
  -6  18   1    3.22    1.05
   6 -18   1    3.67    1.33
   6  18  -1    2.12    1.57
   6 -18   1    4.94    0.94
   6  18  -1    2.41    1.49
   6  18  -1    3.93    1.12
  -6  18   1    1.01    0.82
  -6  18  -1    3.92    0.83
  -6  18  -1    3.80    0.91
   6  18   1    6.44    2.55
  -6  18  -1    3.62    1.23
   6 -18  -1    4.47    0.98
   6  18   1    4.04    1.31
  -6  18  -1    2.64    1.01
  -6 -18   1    4.29    1.09
   6  18  -2    5.03    1.61
  -6  18   2    5.61    1.23
   6  18  -2    9.66    1.70
   6  18  -2   10.43    1.26
   6 -18   2    5.39    1.33
  -6 -18  -2    8.73    1.61
  -6 -18  -2    6.10    1.09
   6  18  -2   14.19    2.66
  -6  18  -2    7.23    1.13
   6 -18  -2    8.46    1.23
   6  18   2    6.64    1.32
  -6  18  -2    9.07    1.66
   6 -18  -2   10.01    1.30
  -6 -18   2    9.81    0.98
  -6  18  -2    6.40    1.19
  -6  18  -2   10.53    1.34
   6  18  -3    1.84    0.80
  -6 -18  -3    1.92    1.20
  -6 -18  -3    1.05    0.90
   6 -18  -3    3.19    1.25
  -6  18  -3    3.21    1.13
  -6  18  -3    1.23    0.87
  -6  18  -3    1.96    1.45
   6 -18  -3    2.43    0.82
  -6 -18  -4    5.16    1.95
   6  18  -4    2.32    0.81
   6 -18  -4    3.52    0.94
  -6  18  -4    3.45    1.10
   6 -18  -4    2.66    0.79
  -6  18  -4    4.71    0.90
  -6  18  -4    0.05    1.68
   6 -18  -5    4.34    0.76
   7  18   0   44.35    3.47
  -7  18   0   40.36    2.30
   7  18   0   43.29    2.98
  -7  18   0   41.92    2.42
   7  18   0   42.39    2.23
  -7 -18   0   44.73    2.44
   7 -18   0   44.01    2.35
   7 -18   1    4.13    1.50
   7  18  -1    4.18    1.93
   7  18  -1    2.35    1.56
   7  18  -1    2.69    0.92
  -7  18   1    4.04    1.07
   7 -18   1    2.25    1.27
   7 -18   1    3.43    0.93
  -7  18   1    1.82    0.88
  -7 -18  -1    2.01    1.13
   7  18  -1    4.43    1.66
  -7  18  -1    2.58    0.93
  -7  18  -1    3.64    0.99
   7 -18  -1    2.38    0.77
  -7  18  -1    2.78    1.11
   7  18   1    1.27    1.14
   7  18  -2   16.40    1.40
   7 -18   2   12.91    1.75
  -7 -18  -2   10.56    1.65
  -7  18  -2   16.11    1.50
   7 -18  -2   13.37    1.42
  -7  18  -2   12.78    1.74
  -7  18  -2    9.42    1.37
  -7  18  -2   12.45    1.21
   7 -18  -2   15.20    1.41
   7  18   2   12.91    1.72
  -7 -18  -3    3.81    1.07
   7  18  -3    2.36    0.83
  -7 -18  -3    3.85    1.26
  -7  18  -3    4.10    1.44
   7 -18  -3    3.14    0.78
   7 -18  -3    3.03    0.91
  -7  18  -3    3.37    0.87
  -7  18  -3    4.56    1.11
  -7  18  -3    2.92    0.87
  -7 -18  -4    0.13    1.42
   7  18  -4   -1.57    1.13
  -7  18  -4    0.43    0.82
  -7  18  -4   -0.69    0.79
   7 -18  -4    1.17    1.22
  -7  18  -4    0.68    1.62
   7 -18  -4    0.32    0.67
   8 -18   0    1.10    0.69
   8  18   0    2.15    0.93
   8 -18   0    0.48    1.37
  -8 -18   0    1.58    0.96
  -8  18   0    1.15    0.88
   8 -18   0    1.21    1.04
   8  18   0   -2.95    1.24
  -8  18   0    1.17    1.67
  -8 -18  -1    5.60    1.23
   8  18  -1    5.32    2.30
   8 -18   1    8.12    1.20
   8 -18   1    8.65    1.59
   8  18  -1   11.34    1.34
   8  18   1    8.08    1.66
  -8  18  -1    5.47    1.17
  -8  18  -1    7.98    1.38
   8 -18  -1   10.91    1.27
   8 -18  -1    9.00    1.29
  -8  18  -1    6.34    1.17
  -8 -18  -2    6.23    1.32
   8 -18   2    5.37    1.62
   8  18  -2    6.59    1.20
   8 -18  -2    8.64    1.14
  -8  18  -2    4.57    1.03
  -8  18  -2    6.60    1.37
   8  18   2    6.14    2.03
   8 -18  -2    9.47    1.32
  -8  18  -2    6.80    1.07
   8  18  -3    9.70    1.09
  -8 -18  -3   13.68    1.76
  -8  18  -3   11.06    1.22
   8 -18  -3    7.93    1.00
  -8  18  -3    9.39    1.18
  -8  18  -3    5.88    1.35
   8 -18  -3    7.07    1.01
  -8 -18  -4   -0.92    1.15
   8 -18  -4    0.92    0.64
  -8  18  -4    0.61    2.28
  -8  18  -4   -0.63    0.55
  -8  18  -4    0.53    0.77
  -9  18   0   14.63    1.57
   9 -18   0   10.01    2.28
   9  18   0   17.64    1.55
   9  18   0   15.38    2.28
   9 -18   0   14.59    1.54
  -9  18   0   17.06    1.41
  -9 -18  -1   -0.13    0.83
   9 -18   1    1.18    1.46
   9 -18   1    0.29    0.92
   9  18  -1    1.68    0.86
   9  18   1    0.41    1.38
  -9  18  -1   -0.06    0.90
  -9  18  -1    0.62    0.91
   9 -18  -1    0.38    0.68
   9 -18  -1    1.11    0.88
   9  18  -2   -1.03    0.72
  -9 -18  -2    0.01    0.98
   9 -18  -2   -0.12    0.76
  -9  18  -2   -0.14    0.75
   9 -18  -2   -0.12    0.60
  -9  18  -2    0.13    0.67
  -9  18  -2   -1.01    0.98
  -9 -18  -3    1.56    0.98
   9  18  -3    2.33    0.84
   9 -18  -3    2.32    0.85
  -9  18  -3    1.55    1.00
  -9  18  -3    1.68    0.70
   9 -18  -3    2.47    0.73
  -9  18  -3    1.07    0.68
  10 -18   0    0.93    0.67
  10 -18   0   -1.18    1.25
 -10 -18   0    1.97    0.92
  10  18  -1    2.11    1.63
 -10 -18  -1    0.19    0.83
  10 -18  -1    0.54    1.18
  10 -18  -1    0.13    0.62
 -10  18  -1    1.42    1.24
  10  18  -2    0.01    1.22
 -10 -18  -2   -0.22    0.83
  10 -18  -2    0.35    0.59
 -10  18  -2    1.01    0.83
 -10  18  -2    0.41    0.58
  10 -18  -2    0.20    0.84
 -10 -18  -3    0.21    1.00
 -10  18  -3   -0.28    0.55
 -10  18  -3    0.09    0.89
  10 -18  -3    0.82    0.69
  11 -18   0    0.62    0.92
  11 -18  -1    0.59    0.94
 -11 -18  -2    1.65    0.78
  11 -18  -2    1.58    0.91
   0  19   0   -1.12    1.01
   0 -19   0    0.58    1.02
   0  19   0    0.05    0.73
   0  19   0    1.51    0.85
   0  19   0   -1.25    1.61
   0 -19   0    0.81    0.83
   0  19  -1   12.42    1.37
   0 -19  -1   10.93    1.34
   0  19  -1   11.86    1.93
   0  19  -1    6.71    1.79
   0 -19  -1   10.57    1.75
   0  19   1   14.51    1.62
   0  19  -1   11.80    1.29
   0 -19  -1   11.51    1.26
   0 -19   1   12.58    1.64
   0  19  -1   11.11    1.51
   0  19  -1   11.61    1.88
   0  19   1    9.58    1.60
   0 -19   2   -0.25    0.83
   0 -19  -2   -0.33    0.64
   0  19  -2   -0.09    1.87
   0  19  -2    1.09    1.27
   0  19  -2   -0.06    0.72
   0 -19  -2    1.01    2.01
   0 -19  -2    0.86    1.03
   0  19  -2   -0.31    0.99
   0 -19  -2   -0.14    0.77
   0  19  -2    0.86    1.27
   0  19  -2    0.23    0.76
   0  19  -3   -0.83    0.66
   0 -19  -3   -0.12    0.64
   0 -19  -3   -0.69    1.97
   0 -19  -3   -0.65    0.81
   0  19  -3   -1.05    0.63
   0  19  -3   -0.40    1.93
   0  19  -3   -0.15    1.71
   0 -19   3   -0.18    0.76
   0  19  -3    0.60    1.61
   0  19  -4    9.79    1.22
   0  19  -4    8.79    2.21
   0 -19   4   12.97    1.03
   0 -19  -4    9.85    1.56
   0  19  -4   10.32    1.25
   0 -19  -4    4.66    2.04
   0  19  -5    0.12    0.75
   0 -19  -5    1.37    0.72
   0  19  -5    0.39    1.13
   1  19   0    0.13    0.78
  -1 -19   0   -1.76    0.96
  -1  19   0    0.27    1.00
   1  19   0    0.43    0.74
  -1  19   0    0.20    0.74
   1 -19   0    0.44    1.03
   1  19   0    1.15    1.17
   1  19   0   -1.43    1.45
   1 -19   0    0.65    1.12
   1 -19   0    0.02    0.73
  -1  19   0   -0.64    0.69
   1  19  -1   19.98    2.22
   1  19  -1   19.54    2.26
  -1  19   1   18.19    1.65
   1  19  -1   16.41    2.32
  -1 -19  -1   17.81    1.42
  -1 -19  -1   18.42    1.66
  -1  19   1   16.17    1.95
   1  19  -1   18.66    1.65
  -1 -19  -1   16.99    2.04
  -1  19   1   17.12    1.27
   1  19  -1   21.43    2.12
   1  19  -1   18.56    1.43
  -1  19  -1   20.74    1.81
   1  19   1   13.66    1.85
   1 -19  -1   19.17    1.58
  -1 -19   1   17.45    1.86
   1  19   1   16.91    1.78
   1 -19  -1   20.25    1.47
  -1  19  -1   16.51    2.16
  -1  19  -1   16.68    1.55
  -1  19  -1   18.70    1.51
   1 -19  -1   15.80    2.10
   1  19   1   17.53    1.56
  -1  19   2   12.45    1.62
  -1 -19  -2   14.74    1.66
   1 -19   2   15.72    1.24
   1  19  -2   16.08    2.09
  -1 -19  -2   14.10    1.46
   1  19  -2   16.70    1.38
   1  19  -2   16.98    2.01
  -1 -19  -2   15.62    1.38
   1  19  -2   14.18    1.51
   1  19  -2   12.26    2.62
   1  19  -2   14.16    1.95
   1 -19  -2   14.23    1.58
  -1  19  -2   16.24    1.42
  -1 -19   2   14.29    1.57
  -1  19  -2   13.22    2.07
  -1  19  -2   16.18    1.64
  -1  19  -2   16.21    2.25
  -1  19  -2   16.12    1.95
  -1  19  -2   25.15    4.29
   1 -19  -2   16.56    1.50
  -1 -19  -3    7.22    1.27
   1  19  -3    3.75    2.30
   1  19  -3   11.37    3.12
  -1 -19  -3    7.00    1.11
   1  19  -3    8.27    1.21
   1 -19   3    7.52    1.20
   1  19  -3    6.86    2.83
   1  19  -3    8.09    1.16
   1 -19  -3    9.05    2.18
  -1 -19   3    7.56    1.12
  -1  19  -3    5.32    1.01
  -1  19  -3    4.93    2.91
  -1  19  -3   13.57    3.70
  -1  19  -3   10.18    3.02
  -1  19  -3    7.19    1.11
   1 -19  -3    6.10    1.12
   1 -19  -3    6.33    1.06
   1  19  -4    1.81    0.87
   1 -19   4    2.62    1.43
  -1 -19  -4    1.25    0.96
   1  19  -4    1.68    2.80
   1  19  -4    2.98    0.82
  -1 -19  -4    1.54    0.82
  -1 -19  -4    2.13    1.68
  -1  19  -4    0.53    1.61
  -1  19  -4    3.00    0.86
  -1  19  -4    1.82    0.94
   1 -19  -4    0.50    0.80
   1 -19  -4    1.14    0.81
  -1 -19  -5    4.95    0.84
   1  19  -5    3.74    0.99
  -1 -19  -5    4.27    1.39
   1 -19  -5    2.74    0.79
  -1  19  -5    4.28    0.86
   1 -19  -5    4.81    1.01
  -1  19  -5    2.81    0.90
  -2  19   0   26.90    1.75
   2  19   0   28.95    2.54
   2  19   0   21.92    1.87
   2 -19   0   24.70    1.59
   2  19   0   24.95    2.01
  -2  19   0   25.39    2.15
   2  19   0   19.95    2.87
   2  19   0   24.68    1.66
  -2 -19   0   25.98    2.11
   2 -19   0   25.57    1.82
  -2  19   0   23.66    1.81
   2  19  -1   50.90    2.94
   2  19  -1   48.07    3.36
  -2 -19  -1   52.52    2.32
  -2 -19  -1   54.56    3.04
  -2 -19  -1   53.21    3.34
  -2  19   1   50.53    1.76
   2  19  -1   51.78    2.92
   2  19  -1   56.36    2.61
   2  19  -1   55.03    2.37
   2  19   1   56.18    2.85
   2 -19  -1   55.76    2.65
  -2  19  -1   55.37    3.18
  -2  19  -1   49.00    2.75
   2 -19  -1   52.13    3.24
  -2  19  -1   52.68    2.70
  -2 -19   1   52.25    3.48
   2  19   1   58.83    2.72
   2 -19  -1   55.14    2.57
   2  19  -2    3.73    1.58
   2  19  -2    6.61    1.07
  -2 -19  -2    3.78    1.48
   2  19  -2    4.71    1.49
   2  19  -2    3.88    0.90
   2  19  -2    6.47    1.50
  -2 -19  -2    4.59    1.14
  -2 -19  -2    4.02    1.33
   2 -19   2    3.23    0.89
  -2 -19  -2    2.66    1.10
   2 -19  -2    4.25    1.05
  -2  19  -2    1.79    1.78
  -2  19  -2    4.77    1.32
  -2  19  -2    4.22    1.08
   2  19   2    3.55    0.76
  -2  19  -2    4.93    1.67
   2  19  -3    1.08    0.74
  -2 -19  -3    1.86    1.11
   2  19  -3    2.63    1.01
  -2 -19  -3    1.09    1.15
   2  19  -3   -0.50    1.75
  -2 -19  -3   -1.55    1.96
   2  19  -3   -2.71    1.29
  -2 -19  -3    0.13    0.74
  -2  19  -3    1.22    0.73
   2 -19  -3    0.87    0.73
  -2  19  -3    1.38    1.71
  -2  19  -3    0.04    0.82
  -2  19  -3    1.20    2.31
  -2 -19   3    0.08    0.72
  -2  19  -3    0.40    1.09
  -2  19  -3   -1.58    1.81
   2 -19  -3    0.72    0.79
   2  19  -4    3.49    0.89
  -2 -19  -4    2.81    1.58
   2 -19   4    5.08    1.01
  -2 -19  -4    3.44    0.91
   2  19  -4    5.26    1.23
  -2 -19  -4    2.88    1.68
   2 -19  -4    3.72    1.26
   2 -19  -4    2.77    0.99
  -2  19  -4    1.78    1.11
  -2  19  -4    2.11    0.84
  -2  19  -4    2.14    1.64
   2  19  -5    0.12    0.93
   2 -19  -5    0.54    0.88
  -2  19  -5    0.48    0.65
   2 -19  -5   -0.04    1.27
   3  19   0   25.09    1.90
   3  19   0   23.45    2.06
   3  19   0   22.94    2.73
   3  19   0   22.18    1.65
   3 -19   0   26.70    1.61
  -3 -19   0   19.78    2.51
   3 -19   0   23.75    1.76
   3  19   0   19.33    2.27
  -3  19   1   18.81    1.71
   3  19  -1   21.12    2.30
   3  19  -1   16.01    2.60
   3  19  -1   15.44    1.41
  -3  19   1   18.65    1.82
   3  19  -1   20.87    2.38
   3  19  -1   18.66    1.78
   3 -19   1   17.06    1.58
   3  19  -1   18.82    2.05
  -3 -19  -1   13.34    2.10
   3 -19  -1   20.26    1.51
   3 -19  -1   18.68    1.59
  -3  19  -1   15.71    1.47
   3  19   1   18.99    1.92
  -3  19  -1   18.44    2.21
  -3  19  -1   15.75    1.66
   3 -19  -1   17.21    2.41
  -3 -19   1   17.29    1.69
   3  19  -2    5.17    1.61
  -3 -19  -2    2.92    1.45
   3  19  -2    4.36    1.68
  -3 -19  -2    5.43    1.02
   3 -19   2    3.89    1.05
  -3 -19  -2    4.60    1.15
   3  19  -2    4.95    0.95
  -3 -19  -2    3.09    1.26
  -3  19   2    3.17    1.08
   3  19  -2    4.96    1.45
  -3  19  -2    3.84    2.20
  -3  19  -2    2.15    1.41
  -3 -19   2    4.57    1.02
  -3  19  -2    7.76    1.89
   3 -19  -2    4.45    0.98
   3 -19  -2    4.24    0.92
   3  19   2    4.81    1.02
  -3  19  -2    6.11    1.33
  -3  19  -2    5.83    1.10
  -3 -19  -3    2.25    1.13
   3  19  -3   -5.35    2.03
  -3 -19  -3    1.65    0.79
   3  19  -3    0.31    0.75
   3  19  -3    1.58    1.44
  -3 -19  -3    2.07    1.12
   3  19  -3    1.95    1.51
  -3 -19  -3    6.96    2.08
  -3  19  -3    2.60    1.04
   3 -19  -3    1.29    0.77
  -3  19  -3    1.05    1.49
  -3 -19   3    1.38    0.72
  -3  19  -3   -0.15    1.13
  -3  19  -3    1.61    0.85
   3 -19  -3    1.67    0.83
  -3 -19  -4    4.96    1.17
   3 -19   4    4.23    0.95
  -3 -19  -4    5.19    1.00
  -3 -19  -4    3.28    1.35
   3  19  -4    5.85    1.46
   3 -19  -4    3.01    1.55
   3 -19  -4    3.72    0.86
  -3  19  -4    4.97    0.96
  -3  19  -4    3.44    1.50
  -3  19  -4    5.07    1.16
   3  19  -5    2.53    0.80
  -3 -19  -5    3.68    0.79
  -3  19  -5    3.55    0.79
   3 -19  -5    2.64    0.84
   3 -19  -5    2.10    0.71
   4  19   0   -0.08    1.60
  -4  19   0    5.15    1.30
   4  19   0    5.01    1.11
   4  19   0    5.79    1.35
  -4  19   0    5.08    0.79
  -4 -19   0    5.67    1.32
  -4  19   0    5.84    1.12
   4 -19   0    4.40    0.89
   4  19   0    2.92    1.55
   4 -19   0    7.23    1.22
   4  19  -1    4.06    1.52
   4  19  -1    3.44    0.87
   4  19  -1    7.22    3.45
  -4  19   1    3.32    1.75
   4  19  -1    3.10    1.28
   4  19  -1    4.18    1.68
   4 -19   1    3.71    0.95
  -4  19  -1    1.98    0.92
   4  19   1    2.62    1.15
  -4  19  -1    3.17    1.33
   4 -19  -1    3.21    0.92
   4 -19   2    3.06    0.94
   4  19  -2    1.42    1.28
  -4 -19  -2    2.18    1.44
   4  19  -2    3.76    1.63
  -4 -19  -2    5.43    1.04
   4  19  -2    4.75    1.40
  -4  19   2    3.03    1.07
  -4 -19  -2    2.30    0.94
  -4 -19   2    2.48    0.90
  -4  19  -2    3.52    1.17
  -4  19  -2    0.95    0.98
   4 -19  -2    2.15    0.77
   4  19   2    0.36    0.83
  -4  19  -2    2.16    0.77
  -4  19  -2    2.53    1.39
  -4 -19  -3    0.10    2.96
  -4 -19  -3    2.02    0.97
  -4 -19  -3    0.70    0.82
  -4 -19  -3   -2.86    1.95
   4  19  -3    0.08    0.68
  -4  19  -3    0.11    0.94
  -4  19  -3   -0.03    0.62
   4 -19  -3   -0.09    0.75
  -4  19  -3    1.47    1.72
   4 -19  -3   -0.02    0.69
   4  19  -4   -0.60    0.70
  -4 -19  -4    0.30    0.82
  -4 -19  -4    2.32    1.80
  -4  19  -4    0.47    0.70
   4 -19  -4    0.69    0.74
  -4  19  -4    1.01    1.92
   4 -19  -4   -0.28    0.69
  -4 -19  -5    0.61    1.66
   4 -19  -5    1.22    0.62
  -4  19  -5    0.95    0.64
  -5 -19   0   11.81    1.63
   5  19   0   15.00    2.34
  -5  19   0   11.84    1.70
  -5  19   0   14.93    1.63
   5 -19   0   16.37    1.66
   5  19   0   12.82    2.20
   5  19   0   14.44    2.02
   5 -19   0   14.24    1.37
   5  19   0   14.96    1.50
   5  19  -1   12.19    2.12
  -5  19   1    9.88    1.42
   5 -19   1    9.30    1.19
  -5  19   1   10.33    1.53
   5  19  -1    8.85    1.84
  -5 -19  -1   10.53    1.72
   5  19  -1    8.27    1.78
   5  19  -1    8.68    1.26
  -5  19  -1    9.06    1.36
   5 -19  -1    9.35    1.45
  -5  19  -1    7.63    1.21
  -5 -19   1   11.11    1.52
  -5  19  -1    8.10    1.60
   5 -19  -1   10.62    1.29
  -5  19  -1    9.56    1.32
   5  19   1    7.13    1.54
  -5 -19  -2    7.84    1.19
   5  19  -2   11.02    1.33
  -5 -19  -2   10.47    1.74
   5  19  -2   11.99    2.25
   5  19  -2   12.59    1.94
   5 -19   2   10.15    1.46
  -5  19  -2   10.48    1.73
  -5  19  -2   11.12    1.53
   5 -19  -2    7.65    1.10
  -5 -19   2   11.07    1.23
   5 -19  -2   10.05    1.27
  -5  19  -2   10.47    1.35
  -5  19  -2   13.69    1.57
   5  19   2   11.14    1.74
  -5 -19  -3    2.38    1.47
  -5 -19  -3    2.14    0.99
   5  19  -3    2.57    0.95
  -5  19  -3    1.99    0.97
  -5  19  -3    2.02    1.52
   5 -19  -3    3.15    0.87
  -5  19  -3    2.44    1.10
  -5  19  -3    4.19    1.18
  -5 -19  -4    2.95    1.53
  -5 -19  -4    2.12    2.16
   5  19  -4    3.89    0.84
  -5  19  -4    4.30    1.81
   5 -19  -4    3.24    0.89
   5 -19  -4    5.19    0.96
  -5  19  -4    5.20    0.94
   5 -19  -5    0.20    0.62
  -5  19  -5    0.33    0.54
   6 -19   0   37.43    2.16
   6  19   0   36.29    4.04
   6 -19   0   35.01    1.93
  -6  19   0   32.07    2.10
   6  19   0   31.63    2.01
  -6 -19   0   32.43    2.26
   6 -19   1    5.30    1.34
   6  19  -1    7.55    1.24
  -6  19   1    6.83    1.27
  -6  19   1    7.78    1.27
   6  19  -1    9.85    2.14
   6  19  -1    6.15    1.68
   6 -19   1    8.03    1.14
  -6 -19  -1    9.31    1.60
   6  19  -1    8.70    1.83
  -6  19  -1    7.61    1.46
   6  19   1    8.38    1.50
   6 -19  -1    8.04    1.14
   6 -19  -1    8.57    1.28
  -6 -19   1    6.36    1.18
  -6  19  -1    7.43    0.81
  -6  19  -1    6.66    1.19
  -6  19  -1    8.02    1.29
   6 -19   2    2.89    1.13
   6  19  -2    2.47    0.89
   6  19  -2    3.37    2.27
  -6 -19  -2    1.97    1.35
  -6  19  -2    1.60    0.78
  -6  19  -2    1.10    0.90
   6 -19  -2    2.92    0.83
  -6  19  -2    1.61    0.81
  -6  19  -2    2.03    1.26
   6 -19  -2    2.86    0.99
   6  19   2    1.18    1.63
   6  19  -3    0.82    1.20
  -6 -19  -3    1.36    1.17
  -6 -19  -3    0.96    1.03
  -6  19  -3    0.35    0.67
   6 -19  -3    0.67    0.65
  -6  19  -3    0.35    1.23
   6 -19  -3    1.32    1.41
  -6  19  -3    1.57    0.81
  -6  19  -3    0.49    1.16
  -6 -19  -4    3.54    1.74
   6  19  -4    0.70    0.71
   6 -19  -4   -0.21    0.62
  -6  19  -4    0.48    1.75
  -6  19  -4   -1.92    1.17
   6 -19  -4    0.32    0.77
  -6  19  -4    0.59    0.67
  -7 -19   0   -0.20    0.78
   7 -19   0   -1.22    0.95
   7  19   0   -0.34    1.25
  -7  19   0    0.14    0.85
   7  19   0    0.68    0.95
  -7  19   0    0.74    0.84
   7 -19   0    0.49    0.74
   7  19  -1    1.31    0.91
  -7 -19  -1    1.17    1.02
   7 -19   1    1.29    1.17
  -7  19   1    3.06    0.96
   7  19  -1   -1.94    1.61
  -7  19   1    2.19    1.00
   7  19   1    2.01    1.18
  -7  19  -1    1.38    0.85
  -7  19  -1    2.11    0.87
  -7  19  -1    2.47    1.14
   7 -19  -1    1.50    0.83
  -7 -19   1    1.61    0.83
   7 -19  -1    0.17    0.86
  -7 -19  -2   -0.16    0.98
   7  19  -2    1.97    0.84
   7 -19   2    1.12    1.03
   7 -19  -2    1.78    0.89
   7  19   2   -0.17    1.43
  -7  19  -2    2.25    0.88
  -7  19  -2    0.59    0.78
   7 -19  -2    1.37    1.24
  -7  19  -2    0.70    1.25
  -7  19  -2    0.15    1.30
   7  19  -3    7.45    1.06
  -7 -19  -3    3.47    1.20
  -7  19  -3    3.69    0.92
   7 -19  -3    4.29    0.83
  -7  19  -3    9.92    1.80
   7 -19  -3    4.93    0.94
  -7 -19  -4    1.32    1.62
   7 -19  -4    1.65    0.67
  -7  19  -4    3.78    2.01
  -7  19  -4    0.66    0.55
   8  19   0    2.67    1.09
   8 -19   0    1.08    0.75
   8  19   0   -2.45    1.90
  -8  19   0    0.69    0.82
  -8 -19   0    0.30    1.02
  -8  19   0    1.19    1.05
   8 -19   0    1.12    1.44
   8  19  -1    7.25    2.65
  -8 -19  -1    4.84    1.17
   8  19  -1    8.37    1.46
  -8  19   1    4.84    1.14
  -8 -19   1    6.65    0.89
   8  19   1    5.69    1.81
   8 -19  -1    8.62    1.12
   8 -19  -1    8.74    1.55
  -8  19  -1    6.36    1.18
  -8  19  -1    3.99    0.97
  -8 -19  -2    2.31    1.06
   8 -19  -2    3.17    0.74
  -8  19  -2    2.86    1.10
   8 -19  -2    2.61    0.93
  -8  19  -2    2.35    0.86
  -8  19  -2    1.85    0.78
   8  19  -3    3.08    1.22
  -8 -19  -3    3.19    1.26
   8 -19  -3    2.18    1.16
   8 -19  -3    3.68    0.77
  -8  19  -3    1.30    0.69
  -8  19  -3    2.46    1.50
  -8  19  -3    2.57    0.84
   8 -19  -4    4.25    0.78
  -8  19  -4    2.02    0.87
  -9 -19   0    0.39    0.83
  -9  19   0   -0.45    0.91
   9 -19   0    1.41    1.23
   9  19   0   -0.63    1.16
   9 -19   0   -0.79    0.68
  -9  19   0    0.63    0.80
   9  19  -1    8.21    1.15
  -9 -19  -1    5.76    1.15
   9 -19  -1    6.48    1.19
  -9  19  -1    7.34    1.23
  -9  19  -1    6.79    1.53
   9 -19  -1    8.15    1.05
  -9 -19  -2   -0.38    0.93
   9  19  -2   -0.22    1.18
  -9  19  -2   -0.20    0.63
   9 -19  -2   -0.47    0.54
   9 -19  -2   -0.33    0.79
  -9  19  -2   -0.76    0.86
  -9  19  -2    0.23    0.73
  -9 -19  -3    1.65    1.10
   9 -19  -3    0.39    0.60
  -9  19  -3    0.02    0.74
  -9  19  -3    1.30    1.04
  10 -19   0    1.16    0.82
 -10 -19  -1    1.58    1.14
 -10  19  -1    0.11    0.71
  10 -19  -1    0.51    0.77
 -10 -19  -2    0.07    0.82
  10 -19  -2   -0.02    0.57
 -10  19  -2    1.06    0.79
  11 -19  -1    0.65    0.81
   0 -20   0    0.27    1.55
   0  20   0    1.08    0.86
   0 -20   0   -0.38    0.90
   0 -20   1   24.41    2.01
   0 -20  -1   20.95    1.79
   0  20   1   23.13    1.90
   0  20   1   24.26    1.61
   0  20  -1   18.79    2.51
   0 -20  -1   24.86    1.61
   0  20   1   22.28    2.10
   0  20  -1   25.65    1.82
   0  20  -1   22.61    1.71
   0  20  -1   26.92    3.39
   0  20  -1   23.00    1.98
   0  20  -2   37.84    3.35
   0  20  -2   36.76    3.18
   0  20  -2   44.25    2.30
   0 -20  -2   42.39    3.22
   0 -20   2   41.13    2.41
   0 -20  -2   42.90    2.24
   0  20  -2   41.79    2.24
   0  20  -2   39.00    3.39
   0 -20  -2   42.83    2.52
   0 -20   3    5.46    1.08
   0 -20  -3    4.22    0.94
   0  20  -3    3.04    0.95
   0 -20  -3    6.09    1.54
   0  20  -3    5.27    1.02
   0  20  -3    1.72    1.50
   0 -20  -3    5.11    1.13
   0  20  -3    5.01    3.15
   0 -20  -4    1.09    0.87
   0  20  -4    1.30    0.83
   0 -20  -4    2.58    0.86
   0  20  -4    1.00    0.83
   0  20  -5   -1.11    0.91
   0 -20  -5    1.30    0.67
   1 -20   0   -1.13    1.66
   1  20   0    1.55    0.96
  -1 -20   0    2.48    1.35
  -1  20   0    1.12    0.82
   1  20   0    3.42    1.95
   1 -20   0   -0.05    0.81
  -1  20   0    0.76    0.84
  -1  20   0    0.76    1.21
  -1  20   1   23.48    1.38
  -1  20   1   22.04    2.06
  -1  20   1   24.39    1.90
   1  20  -1   19.58    2.36
  -1 -20  -1   24.34    2.14
   1  20  -1   23.17    2.61
  -1 -20  -1   23.97    1.62
   1 -20   1   24.54    2.05
   1  20  -1   23.77    1.81
   1  20  -1   22.76    2.01
   1  20  -1   25.64    1.71
  -1 -20  -1   23.62    2.02
  -1  20  -1   26.14    2.96
  -1  20  -1   22.64    1.70
  -1 -20   1   23.13    1.93
   1  20   1   22.52    2.10
   1  20   1   22.67    1.87
   1 -20  -1   22.16    1.61
  -1  20  -1   20.53    2.43
   1 -20  -1   25.52    1.85
  -1  20  -1   19.87    1.85
   1  20   1   24.88    1.75
  -1 -20  -2   28.71    2.75
  -1 -20  -2   23.90    1.69
   1  20  -2   27.59    2.99
   1  20  -2   26.43    1.85
   1 -20   2   21.50    1.57
   1  20  -2   30.80    3.24
   1  20  -2   22.81    2.57
   1 -20   2   24.83    1.93
  -1  20  -2   26.01    2.80
  -1  20  -2   24.04    1.72
  -1  20  -2   18.72    2.61
  -1 -20   2   23.23    1.80
   1 -20  -2   25.03    1.77
   1 -20   3    1.78    0.90
   1  20  -3    2.09    1.02
   1  20  -3    5.51    1.62
  -1 -20  -3    3.02    1.09
  -1 -20  -3    1.17    1.11
  -1 -20  -3    1.47    1.26
   1  20  -3    2.00    0.84
  -1  20  -3    2.79    0.97
  -1  20  -3    1.74    0.87
   1 -20  -3    1.47    0.77
   1 -20  -3    1.31    0.97
  -1  20  -3    2.54    1.37
   1  20  -4    3.63    1.04
   1 -20   4    2.95    0.78
  -1 -20  -4    3.52    0.95
  -1 -20  -4    2.79    1.04
   1  20  -4    3.32    0.91
  -1  20  -4    3.89    1.01
   1 -20  -4    2.03    0.84
  -1  20  -4    3.27    0.96
  -1 -20  -5    3.79    0.83
  -1  20  -5    3.91    0.82
   1 -20  -5    2.71    0.73
   2 -20   0   -0.61    1.17
   2  20   0    1.06    1.83
  -2  20   0   -0.20    0.90
   2  20   0    1.57    0.99
  -2  20   0    0.36    0.71
   2  20   0    0.77    1.31
   2 -20   0    0.84    0.74
  -2  20   0    0.26    0.70
   2  20   0    0.28    0.99
  -2 -20   0    0.02    1.09
  -2 -20  -1   11.91    1.29
   2  20  -1   12.03    2.05
   2  20  -1   13.89    1.56
  -2 -20  -1   12.66    1.91
   2  20  -1   16.33    2.47
   2  20  -1   10.02    1.69
   2  20  -1   11.63    1.30
   2  20  -1   13.19    2.20
   2 -20  -1   10.62    1.54
   2  20   1   10.11    1.40
   2 -20  -1   14.00    1.53
  -2  20  -1   11.05    1.51
   2  20   1   14.44    1.68
   2 -20  -1   13.40    2.14
  -2  20  -1   13.19    1.99
   2 -20   2    1.60    0.81
   2  20  -2    0.73    1.12
  -2  20   2    0.76    0.83
   2  20  -2    0.58    0.93
   2  20  -2    2.27    1.44
   2  20  -2    2.17    1.39
  -2 -20  -2    0.76    0.81
  -2 -20  -2   -0.54    1.33
   2  20  -2    5.15    1.72
  -2 -20  -2    1.20    0.94
   2 -20  -2    2.05    0.80
  -2  20  -2    0.07    2.14
  -2  20  -2    0.20    0.63
  -2  20  -2    3.35    1.42
  -2  20  -2    1.21    1.02
   2 -20  -2    1.45    1.03
  -2 -20   2    1.80    0.87
   2  20   2    1.00    0.59
  -2  20  -2   -1.26    1.78
  -2 -20  -3    7.47    1.46
  -2 -20  -3    6.05    1.25
   2  20  -3    3.73    1.92
  -2 -20  -3    5.93    1.03
   2  20  -3    6.88    1.06
  -2 -20   3    6.83    1.03
  -2  20  -3    5.08    1.04
  -2  20  -3    6.34    1.17
  -2  20  -3    7.40    1.67
   2 -20  -3    4.75    1.02
   2 -20  -3    4.54    0.99
  -2 -20  -4    4.80    0.93
   2  20  -4    6.07    1.34
   2 -20   4    6.71    0.99
  -2 -20  -4    3.24    1.07
   2 -20  -4    4.65    0.94
  -2  20  -4    6.28    1.05
  -2  20  -4    6.59    1.19
   2 -20  -4    4.26    1.04
  -2 -20  -5    2.32    0.70
  -2  20  -5    1.07    0.62
   2 -20  -5    2.20    0.71
  -3  20   0    2.40    0.76
   3  20   0    2.65    1.15
   3  20   0    2.89    1.72
   3 -20   0    1.83    1.11
   3 -20   0    1.02    1.02
   3  20   0   -0.75    0.90
   3  20   0    0.42    1.28
   3  20   0    1.71    1.02
   3  20  -1    2.43    1.55
  -3  20   1    3.04    0.91
   3  20  -1    2.95    1.28
  -3 -20  -1    5.41    1.35
   3  20  -1    3.49    1.62
   3  20  -1    3.82    0.92
  -3  20   1    4.17    1.15
  -3  20  -1    3.50    0.92
  -3  20  -1    3.94    1.33
   3 -20  -1    2.20    0.98
  -3  20  -1    3.43    1.01
  -3 -20   1    2.99    1.03
   3  20   1    1.99    1.00
   3 -20  -1    3.83    1.13
  -3 -20  -2    5.14    1.09
   3 -20   2    5.44    1.08
   3  20  -2    6.08    1.15
  -3  20   2    4.68    1.16
   3  20  -2    6.02    3.10
  -3 -20  -2    6.19    1.11
   3  20  -2    4.56    2.80
  -3 -20  -2    4.41    1.54
   3  20  -2    5.99    1.37
   3  20  -2    5.32    2.80
   3  20   2    5.18    1.19
  -3  20  -2    5.11    1.03
   3 -20  -2    4.92    1.19
  -3  20  -2    5.12    1.26
   3 -20  -2    4.66    0.96
  -3 -20   2    4.59    1.11
  -3  20  -2    6.05    1.58
   3  20  -3    5.36    2.23
  -3 -20  -3    3.87    1.32
  -3 -20  -3    2.72    1.16
   3  20  -3    4.50    1.37
  -3 -20  -3    4.66    1.91
  -3 -20  -3    5.89    1.29
  -3  20  -3    4.33    0.95
  -3  20  -3    5.16    1.45
   3 -20  -3    6.81    1.12
  -3  20  -3    7.86    3.44
   3 -20  -3    2.96    0.83
  -3 -20  -4    5.93    0.97
  -3 -20  -4    2.52    1.58
   3  20  -4    5.52    0.99
   3 -20   4    5.88    1.32
  -3  20  -4    5.62    1.02
   3 -20  -4    5.86    0.99
  -3 -20  -5    0.17    0.79
   3 -20  -5    0.17    0.59
  -3  20  -5    1.62    0.61
   4 -20   0   51.22    3.16
  -4 -20   0   57.56    2.98
  -4  20   0   53.82    1.84
  -4  20   0   51.18    2.86
   4  20   0   46.24    3.71
   4 -20   0   56.22    2.44
  -4  20   0   53.28    2.70
   4  20   0   51.29    2.64
   4  20  -1    1.48    1.67
   4  20  -1    3.15    1.77
   4  20  -1    2.94    1.78
  -4  20   1    1.42    1.00
   4  20  -1    2.63    1.45
  -4  20   1    1.57    0.91
  -4 -20  -1    3.25    1.30
   4 -20  -1    1.85    0.79
  -4  20  -1    2.23    0.84
  -4  20  -1    2.41    1.21
  -4  20  -1    3.00    1.11
   4  20   1    1.63    1.04
  -4 -20   1    3.47    1.08
   4 -20   2    5.77    1.18
  -4  20   2    5.17    1.20
  -4 -20  -2    5.84    1.14
   4  20  -2    5.48    1.80
   4  20  -2    5.52    1.97
  -4 -20  -2    6.34    1.64
   4  20  -2    5.91    1.03
   4  20  -2    5.83    1.68
  -4  20  -2    7.37    1.16
   4  20   2    6.26    1.13
  -4  20  -2    8.11    1.69
  -4  20  -2    6.57    1.29
   4 -20  -2    8.56    1.19
   4 -20  -2    6.17    1.51
  -4 -20  -3    1.61    1.07
  -4 -20  -3   -0.40    1.53
  -4 -20  -3    1.19    0.98
   4  20  -3    3.25    0.93
  -4  20  -3    1.95    1.13
   4 -20  -3    3.27    1.40
  -4  20  -3    0.09    1.26
   4 -20  -3    2.07    0.88
  -4  20  -3    1.56    1.35
   4 -20   4    1.75    0.81
  -4 -20  -4    1.11    0.93
   4  20  -4    2.49    0.80
  -4  20  -4    1.80    1.96
  -4  20  -4    1.75    0.75
   4 -20  -4    2.81    0.79
   4 -20  -4    1.56    0.87
   4 -20  -5    0.08    0.56
  -4  20  -5    0.14    0.67
  -5 -20   0   31.82    2.21
   5 -20   0   28.57    2.05
   5 -20   0   29.19    1.80
   5  20   0   27.82    1.95
  -5  20   0   30.50    2.23
  -5  20   0   28.06    1.97
  -5 -20  -1   29.40    2.26
   5  20  -1   24.06    2.72
  -5  20   1   25.38    1.97
  -5  20   1   26.24    2.00
   5 -20   1   19.56    2.25
   5  20  -1   25.32    2.87
   5  20  -1   25.86    1.76
   5  20  -1   21.11    2.55
   5 -20  -1   29.06    1.94
   5  20   1   22.77    2.10
  -5 -20   1   27.19    1.98
   5 -20  -1   26.93    1.78
  -5  20  -1   27.15    1.84
  -5  20  -1   28.58    1.68
  -5  20  -1   26.60    2.23
   5  20  -2    1.22    1.88
   5 -20   2    4.52    1.50
  -5 -20  -2    4.20    1.52
   5  20  -2    6.37    1.13
   5  20   2    5.53    1.12
  -5  20  -2    5.39    1.03
  -5  20  -2    4.79    1.18
  -5  20  -2    4.47    1.08
   5 -20  -2    3.68    0.85
  -5  20  -2    4.55    1.49
   5 -20  -2    3.49    0.98
  -5 -20   2    5.41    0.97
   5  20  -3    2.16    1.34
  -5 -20  -3   -1.14    1.44
  -5 -20  -3    0.47    1.13
   5 -20  -3    1.08    0.71
  -5  20  -3   -0.17    1.16
  -5  20  -3   -0.01    1.34
  -5  20  -3    0.03    1.05
  -5  20  -3    1.49    0.68
   5 -20  -3    2.06    1.35
  -5 -20  -4    0.01    1.92
   5  20  -4    1.24    0.79
  -5  20  -4    1.29    1.96
  -5  20  -4    0.78    0.68
   5 -20  -4    0.83    0.81
   5 -20  -4    0.39    0.67
   6 -20   0   28.52    2.01
  -6 -20   0   24.83    2.05
   6  20   0   24.18    1.88
   6 -20   0   26.44    1.74
  -6  20   0   24.78    2.00
   6  20   0   28.63    2.76
   6  20  -1    1.25    1.59
  -6 -20  -1    0.03    1.00
   6 -20   1    0.98    1.08
  -6  20   1    2.01    0.91
   6  20  -1    3.20    0.95
  -6  20  -1    2.51    1.14
   6  20   1    0.13    1.16
  -6 -20   1    1.07    0.92
   6 -20  -1    1.28    0.77
   6 -20  -1    1.12    0.95
  -6  20  -1    1.35    0.85
   6  20  -2    1.38    2.10
  -6 -20  -2   -1.35    1.25
   6  20  -2    0.26    0.77
   6 -20  -2   -0.48    0.81
  -6  20  -2    1.81    1.01
   6 -20  -2   -0.46    0.64
   6  20   2   -0.86    0.98
  -6  20  -2    0.70    0.80
  -6  20  -2    0.09    0.77
  -6 -20  -3   -1.25    1.15
   6  20  -3    1.28    0.86
   6 -20  -3    1.37    0.73
  -6  20  -3    1.45    0.68
   6 -20  -3    1.34    0.81
  -6  20  -3    1.72    1.42
  -6  20  -3    1.01    1.04
  -6 -20  -4    1.34    1.53
   6 -20  -4    1.10    0.69
  -6  20  -4    0.63    2.30
  -6  20  -4    3.33    0.80
  -7 -20   0    4.42    1.88
   7 -20   0    5.59    1.49
  -7  20   0    6.24    1.48
  -7  20   0    6.06    1.45
   7  20   0    5.79    1.68
   7  20   0    4.34    1.94
   7 -20   0    6.23    1.98
  -7 -20  -1   -1.33    1.42
  -7  20   1   -0.53    0.86
   7 -20   1   -0.37    1.11
   7  20  -1   -0.27    0.88
   7  20  -1    0.06    1.83
  -7  20   1   -0.34    0.80
  -7  20  -1    0.06    1.49
   7 -20  -1    0.23    1.11
   7  20   1    1.75    1.21
   7 -20  -1    0.42    0.89
  -7  20  -1    0.38    0.76
  -7 -20  -2    4.59    1.30
   7  20  -2    5.21    1.03
   7 -20   2    3.73    1.28
   7 -20  -2    4.93    0.90
  -7  20  -2    6.50    1.07
  -7  20  -2    4.13    1.32
  -7  20  -2    5.84    1.00
   7  20  -3   -0.14    0.76
  -7 -20  -3   -0.13    1.52
   7 -20  -3   -0.26    0.63
  -7  20  -3    0.60    0.88
   7 -20  -3   -0.34    0.79
  -7  20  -3   -0.89    0.91
  -7  20  -3    1.82    1.35
   7 -20  -4    0.15    0.58
  -7  20  -4    0.10    0.58
   8  20   0    2.81    1.84
   8 -20   0   -1.83    1.29
   8 -20   0    2.56    0.82
  -8  20   0    1.82    0.92
  -8 -20   0    1.68    0.86
   8  20   0   -0.28    1.21
   8  20  -1    0.51    0.95
  -8 -20  -1    0.65    0.87
  -8  20   1    1.65    0.96
  -8  20  -1    0.02    0.75
   8 -20  -1    0.54    0.94
   8 -20  -1    1.08    0.67
  -8  20  -1    1.61    0.94
  -8 -20  -2    2.87    1.15
   8  20  -2    2.49    0.88
   8 -20  -2    0.83    0.62
  -8  20  -2    1.60    1.02
   8 -20  -2    2.44    0.96
  -8  20  -2    0.92    0.65
  -8 -20  -3    0.35    0.97
   8 -20  -3    0.16    0.60
  -8  20  -3    0.32    0.59
  -8  20  -3   -0.13    1.03
  -9  20   0   -1.18    0.87
  -9 -20   0    0.85    0.83
  -9  20   0    0.07    0.93
   9 -20   0    1.09    1.00
  -9 -20  -1   -0.08    0.87
   9  20  -1    0.72    1.81
   9 -20  -1   -0.21    0.88
  -9  20  -1    0.09    0.85
  -9  20  -1    1.00    0.81
   9 -20  -1    0.48    1.09
  -9 -20  -2    1.09    0.91
  -9  20  -2    1.69    0.77
   9 -20  -2    1.29    0.64
  -9  20  -2    1.96    0.93
  -9 -20  -3    2.45    1.01
   9 -20  -3    1.61    0.72
  -9  20  -3    0.85    1.08
 -10 -20  -1    0.35    0.76
  10 -20  -1    1.16    0.66
 -10 -20  -2    0.93    0.94
  10 -20  -2    1.50    0.70
 -10  20  -2    1.56    1.19
   0  21   0    0.25    1.66
   0  21   0   -0.06    0.86
   0 -21   0   -0.68    1.18
   0  21   0    1.13    0.87
   0  21  -1    0.18    1.27
   0 -21  -1   -0.97    1.21
   0 -21   1   -0.07    0.98
   0  21  -1    1.05    1.27
   0  21  -1   -0.18    2.15
   0  21   1   -0.44    0.77
   0  21   1    0.64    1.06
   0 -21  -1   -1.66    1.22
   0 -21  -1   -0.21    0.75
   0  21  -1    0.64    0.87
   0  21   1    0.09    0.78
   0 -21  -2   12.45    2.67
   0  21  -2   14.72    2.91
   0  21  -2   19.67    3.04
   0  21  -2   18.55    2.69
   0 -21  -2   15.92    1.47
   0 -21   2   18.29    1.75
   0 -21  -2   20.26    1.74
   0  21  -2   17.56    1.57
   0  21  -2   19.49    1.53
   0 -21  -3    0.97    0.93
   0  21  -3    0.25    1.19
   0  21  -3   -0.11    0.90
   0  21  -3   -0.05    1.41
   0 -21   3    0.41    0.80
   0 -21  -3    0.41    0.74
   0 -21  -4   20.16    1.49
   0  21  -4   16.37    1.51
   0 -21  -4   15.28    1.53
   0 -21  -5    2.25    0.69
   1  21   0    0.28    0.95
   1  21   0   -0.37    0.87
   1  21   0   -0.50    1.27
   1 -21   0   -0.35    1.34
  -1  21   0    1.42    0.82
  -1 -21   0    0.28    1.08
  -1  21   0   -0.77    0.83
  -1  21   0    0.51    1.09
   1  21  -1    4.16    1.33
  -1  21   1    5.08    1.18
  -1  21   1    4.42    0.73
  -1 -21  -1    5.39    1.03
   1  21  -1    2.01    1.95
   1  21  -1    4.32    1.64
  -1  21   1    6.55    1.41
   1 -21   1    8.17    1.51
  -1 -21  -1    5.90    1.50
   1  21  -1    5.58    1.14
  -1  21  -1    4.52    1.51
   1  21   1    3.67    1.25
   1 -21  -1    2.47    1.43
  -1 -21   1    7.01    1.32
   1 -21  -1    5.08    1.02
  -1  21  -1    6.06    1.13
   1  21   1    4.37    1.18
   1 -21  -1    5.04    1.94
  -1 -21  -2    7.05    1.37
  -1 -21  -2    7.18    1.09
   1  21  -2    5.05    2.15
   1  21  -2   10.78    2.43
  -1 -21  -2   12.60    1.97
   1  21  -2   11.91    1.39
   1  21  -2    9.27    2.31
   1  21  -2   13.64    1.50
   1  21  -2   10.42    1.84
   1 -21   2    9.65    1.42
  -1  21  -2   12.19    2.68
  -1  21  -2    9.08    1.97
   1 -21  -2   11.30    1.50
  -1  21  -2    9.25    1.26
   1 -21  -2   10.00    1.25
  -1 -21   2    8.98    1.33
  -1  21  -2   10.81    1.39
  -1  21  -2   10.84    1.93
   1  21  -3    6.68    1.84
   1  21  -3    8.61    1.18
  -1 -21  -3    7.13    1.47
   1  21  -3    5.40    1.13
  -1 -21  -3    6.11    1.27
   1 -21   3    5.44    1.13
   1 -21  -3    6.65    1.23
  -1  21  -3    4.07    2.16
  -1  21  -3    8.91    1.71
  -1  21  -3    7.54    1.25
   1 -21  -3    7.18    1.07
  -1 -21  -4    1.39    0.81
   1  21  -4    1.61    1.05
  -1 -21  -4    1.38    1.10
   1  21  -4    2.08    0.93
   1 -21  -4    1.35    0.89
   1 -21  -4    1.83    0.80
  -1  21  -4    2.30    1.03
  -1  21  -4    1.72    0.76
  -1 -21  -5    2.03    0.74
   1 -21  -5    1.59    0.63
   2 -21   0   17.91    1.52
  -2  21   0   20.84    1.70
   2  21   0   26.37    3.24
  -2  21   0   17.14    2.05
   2  21   0   19.08    2.53
   2  21   0   18.17    1.78
  -2 -21   0   15.67    1.90
   2 -21   0   19.50    2.20
   2  21   0   14.89    2.22
  -2  21   1    4.73    1.14
   2  21  -1    4.83    1.71
  -2 -21  -1    4.62    1.40
  -2  21   1    5.80    1.39
   2  21  -1    3.94    1.80
   2  21  -1    3.90    1.29
   2  21  -1    7.08    1.25
   2  21  -1    3.30    1.43
   2  21   1    4.38    1.09
   2 -21  -1    4.77    1.01
  -2  21  -1    4.29    1.04
  -2  21  -1    4.88    1.45
  -2  21  -1    5.58    1.20
  -2 -21   1    3.08    1.06
   2 -21  -1    5.09    1.81
   2 -21  -1    7.58    1.65
   2  21  -2    2.60    1.05
   2  21  -2    3.75    1.47
   2  21  -2    3.90    1.01
  -2 -21  -2    2.89    0.96
   2  21  -2    7.46    2.18
  -2 -21  -2    2.86    1.60
   2  21  -2    5.11    1.98
  -2 -21  -2    1.82    1.64
   2 -21   2    4.50    0.90
  -2  21  -2    2.49    1.14
  -2 -21   2    4.36    1.10
  -2  21  -2    4.88    1.71
   2 -21  -2    3.85    0.93
  -2  21  -2    2.43    4.33
  -2  21  -2    3.48    0.86
   2 -21  -2    4.81    1.18
  -2 -21  -3    6.30    1.65
  -2 -21  -3    4.03    1.23
  -2 -21  -3    3.48    2.14
   2  21  -3    4.45    1.17
  -2 -21  -3    6.14    2.03
   2  21  -3    6.40    1.06
  -2  21  -3    4.81    1.43
   2 -21  -3    4.56    1.07
  -2  21  -3    5.39    1.90
  -2  21  -3    5.46    1.23
  -2  21  -3    2.83    0.90
  -2 -21  -4    2.18    1.35
   2  21  -4    1.16    0.84
  -2 -21  -4    1.26    0.78
   2 -21   4   -0.26    0.72
  -2  21  -4    0.02    0.70
   2 -21  -4   -0.62    0.81
   2 -21  -4   -0.01    0.73
   2 -21  -5    1.12    0.62
   3  21   0    2.52    1.19
  -3 -21   0    0.48    0.96
   3  21   0   -0.22    2.38
   3  21   0    1.91    1.13
  -3  21   0    2.04    0.77
  -3  21   0    1.15    1.08
  -3  21   0    1.44    0.85
   3 -21   0    0.28    0.83
   3  21  -1    2.68    1.94
   3  21  -1    8.84    2.94
   3  21  -1    1.99    1.33
   3  21  -1    4.58    1.30
  -3  21   1    2.28    0.96
  -3 -21  -1    4.80    1.27
   3  21  -1    5.02    1.15
  -3  21   1    3.25    1.08
   3 -21  -1    8.42    1.33
   3 -21  -1    4.81    1.05
   3 -21  -1    5.82    1.82
   3  21   1    4.30    1.15
  -3  21  -1    5.19    1.48
  -3 -21   1    4.01    1.14
  -3  21  -1    5.55    1.18
  -3  21  -1    4.32    1.04
   3  21  -2    9.39    1.90
   3 -21   2    8.62    1.20
   3  21  -2    7.26    1.13
  -3 -21  -2    4.89    1.59
  -3 -21  -2   10.15    1.87
  -3 -21   2    9.07    1.26
  -3  21  -2    7.76    1.62
  -3  21  -2    9.00    1.49
   3 -21  -2    8.83    1.16
   3 -21  -2   10.18    1.43
   3  21   2    7.98    1.52
  -3  21  -2    7.75    1.17
  -3 -21  -3   -0.18    1.74
  -3 -21  -3    1.72    0.98
   3  21  -3    2.64    0.94
   3  21  -3    0.43    2.25
  -3 -21  -3    0.56    1.06
  -3  21  -3   -0.35    0.67
  -3  21  -3    2.06    1.21
   3 -21  -3    0.36    0.95
   3 -21  -3    1.03    1.05
  -3  21  -3    0.66    1.69
   3  21  -4    0.90    0.82
  -3 -21  -4   -0.55    0.80
   3 -21   4    0.52    0.70
   3 -21  -4   -0.87    0.79
   3 -21  -4    0.58    0.67
  -3  21  -4   -0.02    0.65
  -3  21  -5    1.14    0.91
   3 -21  -5    0.70    0.83
   4 -21   0    9.14    1.43
  -4  21   0    5.29    1.12
  -4 -21   0    8.84    1.56
   4 -21   0    7.98    1.14
  -4  21   0    4.17    1.23
   4  21   0    6.27    2.52
   4  21   0    8.23    2.15
  -4  21   1    0.06    0.79
   4  21  -1    4.00    1.93
   4  21  -1    0.60    1.36
  -4  21   1    0.78    0.97
   4  21  -1   -0.24    2.83
  -4 -21  -1    0.84    1.16
   4  21  -1    1.19    0.93
   4  21   1    2.06    1.08
  -4  21  -1    0.82    0.85
   4 -21  -1    1.48    0.99
  -4 -21   1    1.38    1.04
  -4  21  -1    0.13    0.87
  -4  21  -1    0.36    1.12
   4 -21  -1    1.35    0.78
  -4 -21  -2   14.04    1.87
   4  21  -2   14.71    2.30
   4 -21   2   19.51    1.72
   4  21  -2   16.65    1.51
  -4  21  -2   20.61    1.87
   4  21   2   15.56    1.51
   4 -21  -2   19.85    1.60
  -4  21  -2   16.97    2.12
   4 -21  -2   21.84    1.75
  -4  21  -2   18.65    1.59
  -4 -21   2   20.07    2.06
  -4 -21  -3    7.89    1.77
   4  21  -3    8.27    1.13
  -4 -21  -3    5.84    1.24
  -4  21  -3    5.92    1.01
   4 -21  -3    5.66    0.97
  -4  21  -3    6.02    1.64
   4 -21  -3    9.35    1.26
  -4  21  -3    5.63    1.41
   4 -21   4    1.20    1.16
  -4  21  -4    1.45    0.74
  -4  21  -4   -2.56    2.44
   4 -21  -4    0.75    0.85
   4 -21  -4    1.26    0.67
  -5 -21   0   -0.24    0.89
  -5  21   0   -0.08    0.92
   5 -21   0    0.60    1.25
   5  21   0   -0.22    1.12
   5 -21   0    0.00    0.78
  -5  21   0    1.60    0.79
   5 -21   1   14.75    1.78
  -5  21   1   20.81    1.81
  -5 -21  -1   21.11    2.05
  -5  21   1   21.53    1.75
   5  21  -1   20.97    2.55
   5  21  -1   18.77    1.61
  -5 -21   1   18.50    1.75
  -5  21  -1   18.52    1.47
   5 -21  -1   22.74    1.92
   5 -21  -1   18.99    1.70
   5  21   1   19.60    1.99
  -5  21  -1   15.58    1.89
  -5 -21  -2    4.63    1.41
   5  21  -2    4.68    1.04
   5  21  -2    6.19    2.08
   5 -21   2    5.31    1.15
  -5  21  -2    4.06    1.08
  -5 -21   2    5.13    1.05
  -5  21  -2    7.66    2.01
   5 -21  -2    5.73    1.14
  -5  21  -2    3.06    0.86
   5 -21  -2    4.69    0.99
  -5 -21  -3    2.61    1.36
   5  21  -3    3.18    0.94
   5 -21  -3    2.97    0.93
  -5  21  -3    3.36    0.83
  -5  21  -3    3.28    1.40
   5 -21  -3    2.66    0.76
   5 -21   4    4.78    1.14
   5 -21  -4    2.65    0.72
  -5  21  -4    3.78    0.69
  -5  21  -4    0.68    2.94
   6 -21   0    0.30    1.66
  -6 -21   0    5.38    1.21
   6  21   0    2.89    1.43
   6 -21   0    4.91    1.19
  -6  21   0    6.60    1.25
  -6  21   0    5.83    1.40
   6 -21   1    1.07    1.12
  -6 -21  -1    4.60    1.37
   6  21  -1    3.98    1.18
   6  21  -1    4.44    1.84
  -6  21   1    3.11    1.49
   6 -21  -1    3.14    1.08
  -6 -21   1    2.72    1.37
  -6  21  -1    3.82    1.08
   6  21   1    3.74    1.21
  -6  21  -1    3.43    1.34
   6 -21   2    0.68    1.22
   6  21  -2   -0.09    0.79
  -6 -21  -2    0.72    1.04
  -6  21  -2    1.60    1.16
   6 -21  -2    1.04    0.92
  -6  21  -2    0.33    0.73
   6 -21  -2    0.28    0.67
  -6 -21  -3    0.22    1.33
   6  21  -3   -1.75    0.72
   6 -21  -3    1.40    0.83
  -6  21  -3   -0.04    0.67
   6 -21  -3    0.56    0.66
   6 -21   4   -0.78    1.07
   6 -21  -4    0.67    0.63
  -6  21  -4    0.33    0.53
   7 -21   0    0.58    0.81
   7 -21   0    0.21    1.37
  -7 -21   0    1.28    0.87
  -7  21   0    1.30    0.85
   7  21   0   -2.21    1.31
   7 -21   0    1.06    1.49
  -7  21   0   -0.12    0.87
  -7  21   1    4.92    1.11
   7  21  -1    5.35    1.20
  -7 -21  -1    3.96    1.06
   7 -21   1    4.73    1.32
   7 -21  -1    5.03    0.98
  -7 -21   1    5.97    0.94
  -7  21  -1    2.96    1.23
  -7  21  -1    2.45    0.88
   7  21   1    2.47    1.28
   7 -21  -1    4.33    1.21
  -7 -21  -2    1.95    1.11
   7  21  -2    0.94    0.89
   7 -21  -2    0.94    0.74
  -7  21  -2    0.55    0.71
   7 -21  -2    0.88    0.94
  -7  21  -2    1.78    1.23
  -7 -21  -3    3.44    1.16
   7 -21  -3    2.83    1.15
   7 -21  -3    2.31    0.72
  -7  21  -3    4.42    1.00
  -7  21  -3    0.37    1.10
   8 -21   0    1.84    1.20
  -8  21   0    0.88    0.87
  -8  21   0    0.48    0.83
  -8 -21   0    2.11    1.13
  -8 -21  -1    4.58    1.05
   8  21  -1    4.00    1.15
  -8  21  -1    6.37    1.23
   8 -21  -1    6.38    0.96
  -8 -21  -2    5.10    1.60
   8 -21  -2    3.52    1.12
  -8  21  -2    2.97    1.32
   8 -21  -2    1.88    0.69
  -8  21  -2    3.45    0.82
  -8 -21  -3    1.68    1.30
   8 -21  -3    1.30    0.62
  -8  21  -3    0.50    0.81
  -8  21  -3    0.23    1.07
   9 -21   0    3.18    1.19
  -9  21   0    0.19    1.11
  -9 -21   0    0.79    0.91
  -9 -21  -1    1.86    0.86
  -9  21  -1    3.89    1.17
   9 -21  -1    2.32    0.73
  -9  21  -1    3.45    1.30
  -9 -21  -2    6.24    1.01
   9 -21  -2    6.81    0.87
  -9  21  -2    8.71    1.11
   0  22   0   13.83    1.98
   0  22   0   15.81    1.65
   0  22   0   14.04    1.54
   0 -22   0   16.68    1.93
   0 -22  -1   25.55    1.76
   0 -22  -1   24.96    2.39
   0 -22   1   26.08    2.09
   0  22  -1   15.79    2.60
   0  22   1   23.79    1.94
   0  22   1   26.66    2.17
   0  22  -1   28.60    2.86
   0  22  -1   27.43    1.88
   0 -22  -2    1.56    2.79
   0  22  -2    5.29    2.47
   0 -22  -2    4.25    1.34
   0  22  -2    6.37    1.12
   0 -22   2    4.30    1.16
   0  22  -2    5.12    1.27
   0 -22  -2    3.92    0.95
   0  22  -2    4.76    1.43
   0  22  -3   -0.32    0.77
   0 -22   3   -0.21    0.80
   0  22  -3    0.90    0.96
   0 -22  -3   -1.32    1.02
   0  22  -3    0.72    1.41
   0 -22  -3    0.53    0.77
   0  22  -4    1.08    0.84
   0 -22  -4   -0.22    0.67
   0 -22  -4    0.33    1.05
  -1  22   0   12.85    1.95
   1  22   0   22.76    2.19
   1  22   0   20.07    1.77
  -1  22   0   16.85    2.02
   1 -22   0   18.58    2.05
  -1 -22   0   21.66    2.13
   1  22   0   19.65    1.83
  -1  22   0   18.70    1.65
   1 -22   1   22.31    2.05
  -1  22   1   16.04    1.94
   1  22  -1   19.57    2.30
   1  22  -1   20.76    1.82
   1  22  -1   15.39    3.19
   1  22  -1   21.10    2.63
  -1 -22  -1   19.37    2.28
  -1  22   1   19.04    1.74
  -1  22  -1   18.75    2.25
   1  22   1   20.70    1.82
  -1 -22   1   21.63    1.93
  -1  22  -1   19.45    1.69
   1 -22  -1   20.23    1.93
   1  22   1   17.80    1.54
  -1  22  -1   15.42    2.02
   1 -22  -1   15.52    1.99
   1 -22  -1   20.45    1.59
   1  22  -2    1.60    1.41
  -1 -22  -2    4.45    2.89
   1  22  -2    3.35    1.10
  -1 -22  -2    3.05    1.42
   1 -22   2    1.91    1.03
   1  22  -2    2.84    2.71
   1  22  -2    2.16    0.97
  -1 -22  -2    2.55    0.97
  -1  22  -2    2.66    1.20
  -1  22  -2    3.77    1.59
   1 -22  -2    4.49    0.97
   1 -22  -2    3.14    1.17
  -1  22  -2    3.49    1.01
  -1 -22   2    4.01    1.14
   1 -22  -2    0.53    3.32
  -1 -22  -3    1.79    0.90
   1 -22   3    1.94    0.90
  -1 -22  -3    1.34    1.24
   1  22  -3    1.00    1.47
   1  22  -3    1.92    0.98
   1  22  -3    1.18    0.95
  -1 -22   3    1.19    0.77
   1 -22  -3    1.31    1.02
  -1  22  -3    2.17    0.85
   1 -22  -3    0.81    0.82
  -1  22  -3    3.16    1.42
  -1  22  -3    4.75    2.22
  -1  22  -3    2.07    1.29
  -1 -22  -4    3.60    1.08
   1  22  -4    2.96    1.05
   1 -22  -4    1.80    1.02
   1 -22  -4    1.40    0.66
  -1  22  -4    0.62    0.69
   2 -22   0    0.61    1.18
  -2  22   0    0.71    1.18
   2  22   0    0.22    0.91
  -2  22   0    0.33    0.81
  -2 -22   0    0.89    1.05
   2  22   0    0.49    1.89
   2 -22   0    2.10    1.04
   2  22   0    1.88    1.38
   2  22  -1    0.16    1.17
  -2  22   1    1.61    1.16
  -2 -22  -1    2.39    1.39
   2  22  -1    1.63    1.04
  -2  22   1    1.08    0.88
   2  22  -1    1.18    1.17
   2  22  -1   -0.32    2.58
   2  22  -1    5.40    1.62
   2 -22   1    1.90    1.17
  -2  22  -1    2.76    0.97
   2  22   1   -0.50    0.84
   2 -22  -1    0.21    1.40
   2 -22  -1    0.60    0.77
  -2  22  -1    1.08    0.99
   2 -22  -1   -0.95    1.17
  -2  22  -1    0.83    1.13
  -2 -22   1    1.66    1.04
   2  22  -2    2.12    1.43
  -2 -22  -2    1.80    1.49
   2  22  -2    1.38    0.98
   2 -22   2   -0.45    0.86
  -2 -22  -2    0.10    2.00
   2 -22  -2    0.70    1.05
   2 -22  -2    0.82    0.77
  -2  22  -2   -0.06    1.62
  -2 -22   2    1.18    0.89
  -2  22  -2   -0.72    0.96
  -2  22  -2    0.88    0.75
   2  22  -3    8.67    1.24
  -2 -22  -3    6.70    1.08
  -2 -22  -3   10.74    2.33
   2 -22   3   10.13    1.32
   2 -22  -3    6.23    1.00
  -2 -22   3    6.79    0.88
  -2  22  -3    6.55    1.45
  -2  22  -3    6.70    2.00
   2 -22  -3    7.91    1.28
  -2  22  -3    7.70    1.16
  -2 -22  -4    1.47    0.80
   2  22  -4    2.77    0.99
  -2  22  -4    2.11    0.81
   2 -22  -4    2.34    0.77
   2 -22  -4    2.23    1.00
  -3  22   0   12.62    1.55
  -3 -22   0   11.75    1.60
   3 -22   0   15.02    1.50
   3  22   0   14.40    1.78
   3 -22   0   16.07    2.06
  -3  22   0   15.49    1.97
  -3  22   0   13.64    1.14
  -3  22   1    2.44    1.07
   3  22  -1    3.95    1.92
   3  22  -1    2.59    1.37
  -3  22   1    4.06    1.03
   3  22  -1    4.53    1.81
   3  22  -1    1.69    1.13
  -3 -22  -1    4.86    1.28
   3  22   1    1.87    1.34
  -3  22  -1    3.26    0.99
  -3 -22   1    4.16    1.20
   3 -22  -1    1.80    1.99
   3 -22  -1    4.80    1.25
  -3  22  -1    3.94    1.33
   3 -22  -1    3.10    0.92
  -3  22  -1    1.94    1.44
  -3 -22  -2    1.70    1.72
   3  22  -2    2.92    1.71
   3  22  -2    0.52    0.96
   3 -22  -2    1.72    1.03
  -3  22  -2    1.79    1.02
   3 -22  -2    1.61    1.21
  -3  22  -2    2.02    0.84
  -3 -22   2    0.85    1.12
  -3 -22  -3    3.42    1.41
   3 -22   3    2.81    1.02
   3  22  -3    1.54    0.93
  -3 -22  -3    2.35    1.97
   3 -22  -3    2.26    0.79
  -3  22  -3    6.08    1.84
   3 -22  -3    1.89    1.01
  -3  22  -3   -0.11    1.61
  -3  22  -3    2.36    0.82
   3 -22   4    6.71    0.83
   3 -22  -4    5.45    1.48
  -3  22  -4    5.26    0.91
   3 -22  -4    4.28    0.81
   4  22   0    9.65    1.50
  -4 -22   0    9.00    1.52
  -4  22   0    6.23    1.14
  -4  22   0    8.51    1.49
   4 -22   0    7.90    1.85
   4 -22   0    7.84    1.66
  -4 -22  -1    3.89    1.37
   4  22  -1    3.49    1.10
   4  22  -1    4.05    1.53
  -4  22   1    2.12    1.07
  -4  22   1    3.14    0.98
   4 -22   1    2.91    1.19
   4  22   1    2.79    1.17
  -4  22  -1    4.13    1.37
  -4  22  -1    2.47    0.90
  -4  22  -1    4.24    0.99
   4 -22  -1    5.92    3.34
   4 -22  -1    5.69    1.02
   4 -22  -1    3.91    1.20
  -4 -22   1    2.84    1.03
  -4 -22  -2    2.48    1.29
   4  22  -2    3.08    1.67
   4 -22   2    2.29    1.48
  -4  22  -2    1.60    1.40
  -4  22  -2    1.73    1.24
  -4 -22   2    2.16    0.90
   4 -22  -2    1.53    1.12
  -4  22  -2    1.35    1.04
   4 -22  -2    2.05    0.94
   4 -22   3   -0.05    0.88
  -4 -22  -3    0.55    1.96
   4  22  -3    0.52    0.88
   4 -22  -3    0.13    0.90
   4 -22  -3   -0.14    0.62
  -4  22  -3    0.58    0.70
  -4  22  -3    1.65    1.55
   4 -22   4    1.22    0.71
   4 -22  -4   -0.35    0.53
  -4  22  -4   -0.16    0.65
   5 -22   0   32.48    1.90
  -5 -22   0   32.80    2.45
  -5  22   0   33.65    2.43
  -5  22   0   35.87    2.43
   5  22   0   31.92    2.46
  -5 -22  -1    0.43    1.26
   5  22  -1   -0.14    1.17
   5 -22   1   -0.35    0.99
   5  22  -1    1.26    1.35
  -5  22   1   -0.09    1.38
  -5  22   1   -0.70    0.70
   5 -22  -1    0.33    1.02
  -5  22  -1   -0.43    0.79
   5  22   1    0.00    1.01
  -5 -22   1   -0.94    0.83
  -5  22  -1    2.09    1.95
   5 -22  -1   -0.95    1.91
  -5 -22  -2    3.30    1.25
   5  22  -2    0.61    0.86
  -5 -22   2    2.22    0.75
  -5  22  -2    2.70    0.81
  -5  22  -2    1.80    1.23
   5 -22  -2    1.71    0.76
   5 -22  -2    2.72    1.00
  -5 -22  -3    7.39    1.55
   5  22  -3    2.81    0.98
  -5  22  -3    5.44    0.95
   5 -22  -3    4.65    1.03
   5 -22  -3    5.92    0.93
  -5  22  -3    3.17    1.52
   5 -22   4   14.34    1.31
  -6 -22   0    1.12    0.96
  -6  22   0    1.00    0.95
   6 -22   0    0.15    0.87
  -6  22   0    1.35    0.82
   6  22   0   -0.07    1.25
  -6  22   1   -0.48    0.79
  -6  22   1   -0.29    0.71
  -6 -22  -1    0.13    1.00
   6  22  -1    1.85    1.14
   6  22  -1   -0.12    2.23
   6 -22   1   -1.00    1.06
  -6  22  -1   -0.29    0.66
   6  22   1    2.28    1.19
  -6  22  -1    0.10    1.00
   6 -22  -1    0.34    0.74
   6 -22  -1    0.73    1.12
   6  22  -2    3.94    1.12
  -6 -22  -2    4.16    1.33
   6 -22  -2    2.90    0.80
  -6  22  -2    3.00    0.81
   6 -22  -2    6.14    1.22
  -6  22  -2    7.46    1.62
  -6 -22  -3    1.28    1.26
   6 -22  -3    0.33    0.65
  -6  22  -3    0.62    0.67
   6 -22  -3   -0.72    1.21
  -6  22  -3    0.18    1.34
  -7 -22   0   20.79    1.66
   7 -22   0   22.65    2.10
  -7  22   0   24.12    1.76
  -7  22   1    0.80    0.90
  -7 -22  -1    0.96    0.93
   7  22  -1   -0.22    1.20
  -7  22  -1    1.39    0.98
  -7  22  -1    0.36    0.82
  -7 -22   1    0.85    0.78
   7 -22  -1    0.84    0.78
  -7 -22  -2    2.18    1.37
   7  22  -2    2.57    1.54
   7 -22  -2    1.39    0.76
  -7  22  -2    1.56    1.16
   7 -22  -2    1.54    1.01
  -7  22  -2    0.29    0.89
  -7 -22  -3    0.46    1.07
  -7  22  -3    1.62    0.79
   7 -22  -3    0.96    0.61
  -7  22  -3    3.46    1.20
  -8  22   0   13.05    1.41
  -8 -22   0    8.17    1.50
  -8  22   0   13.38    1.23
   8 -22   0   11.37    1.60
  -8  22  -1    0.19    1.03
  -8  22  -1    0.66    0.77
   8 -22  -1    0.17    0.70
  -8 -22  -2    1.30    0.98
   8 -22  -2    0.47    1.07
  -8  22  -2    2.18    0.99
  -8  22  -2    2.14    0.79
  -9 -22  -1    3.83    0.79
   9 -22  -1    4.14    1.53
  -9  22  -1    7.50    1.27
   0  23   0    0.65    0.84
   0 -23   0    1.60    1.07
   0  23   0    0.21    1.44
   0  23   0   -0.50    1.17
   0  23  -1   24.39    2.12
   0 -23   1   24.39    1.69
   0 -23  -1   25.54    2.54
   0  23  -1   26.63    1.92
   0  23   1   24.72    1.96
   0  23  -1   27.90    2.88
   0 -23   2    5.99    1.69
   0 -23  -2    4.85    1.79
   0  23  -2    5.02    1.09
   0  23  -2    7.03    1.78
   0  23  -2    3.41    1.24
   0 -23  -2   12.36    2.30
   0 -23  -2    3.61    1.01
   0 -23  -3   11.41    1.25
   0 -23  -3    9.21    1.54
   0 -23   3   12.60    1.70
   0  23  -3    9.83    1.28
   0 -23  -4   -0.33    0.72
   1  23   0    2.55    1.09
  -1  23   0    4.88    1.02
   1 -23   0    3.36    1.25
  -1  23   0    2.61    0.99
  -1 -23   0    3.07    1.22
   1  23   0    3.45    1.02
  -1  23   0    3.00    1.25
   1  23   0    3.75    1.34
   1  23  -1    2.08    1.75
  -1  23   1    1.61    1.21
   1 -23   1    3.14    1.18
   1  23  -1    3.57    1.27
   1  23  -1    3.58    1.05
  -1  23   1    3.27    1.00
  -1 -23  -1    1.17    1.27
   1  23   1    3.67    0.91
  -1  23  -1    4.32    1.43
  -1  23  -1    3.20    1.12
  -1 -23   1    3.15    1.15
   1 -23  -1    6.80    2.82
  -1  23  -1    3.55    1.00
  -1 -23  -2    4.41    1.13
  -1 -23  -2    4.12    1.64
   1 -23   2    4.87    1.27
   1  23  -2    4.35    1.13
   1  23  -2    0.86    1.29
   1  23  -2    5.74    1.48
   1  23  -2    5.62    2.04
   1 -23  -2    3.55    2.31
  -1  23  -2    1.62    1.48
  -1 -23   2    4.36    1.19
   1 -23  -2    4.18    1.31
   1 -23  -2    4.09    0.97
  -1  23  -2    4.91    1.45
  -1  23  -2    3.72    1.23
   1  23  -3    1.60    1.24
  -1 -23  -3    1.78    0.89
   1  23  -3    5.26    1.86
   1 -23   3    1.25    0.85
   1 -23  -3    0.68    0.76
   1 -23  -3    3.37    1.19
  -1 -23   3    0.37    0.77
  -1  23  -3    1.77    0.85
  -1  23  -3    0.53    1.93
  -1 -23  -4    4.06    0.95
   1 -23  -4    5.56    0.89
  -1  23  -4    7.21    1.06
   2 -23   0    4.80    1.42
  -2  23   0    5.74    1.59
  -2  23   0    4.82    0.99
  -2 -23   0    7.21    1.42
   2  23   0    7.09    1.27
   2  23   0    7.33    1.35
  -2  23   0    6.62    1.18
   2  23  -1   -1.05    2.50
   2  23  -1   -0.32    1.15
  -2 -23  -1    1.17    1.21
  -2  23   1    0.80    1.05
   2 -23   1    0.59    1.01
  -2  23   1    0.04    0.76
   2  23  -1    0.24    1.36
   2 -23  -1    2.91    2.80
   2  23   1    0.26    0.94
  -2  23  -1    0.22    0.71
   2 -23  -1    1.07    1.42
  -2  23  -1    0.39    0.97
  -2 -23   1    0.14    0.90
  -2  23  -1   -1.19    1.15
   2  23  -2    4.94    2.74
   2  23  -2    0.54    1.04
  -2 -23  -2   -0.75    1.27
   2  23  -2    2.49    1.24
   2 -23   2    1.88    1.28
   2  23  -2    0.88    2.12
   2 -23  -2   -2.05    1.08
  -2  23  -2    0.30    0.78
  -2  23  -2    1.58    1.48
   2 -23  -2   -0.07    0.76
  -2  23  -2   -0.92    1.02
   2 -23   3    4.63    0.96
  -2 -23  -3    2.69    1.04
   2  23  -3    4.13    1.12
  -2 -23  -3    7.35    2.02
  -2  23  -3    4.93    1.94
  -2  23  -3    7.07    1.10
   2 -23  -3    5.11    1.30
   2 -23  -3    5.39    0.99
  -2  23  -4   -0.83    0.61
   2 -23  -4   -0.30    0.86
  -3  23   0   -1.23    0.95
  -3  23   0    0.69    0.79
   3 -23   0    1.17    1.50
   3  23   0    0.56    1.05
  -3 -23   0    1.13    1.13
   3  23  -1    5.81    1.48
  -3  23   1    2.54    1.13
  -3  23   1    4.55    1.24
   3 -23   1    2.90    1.55
   3 -23   1    2.72    1.33
  -3 -23  -1    1.99    1.14
   3 -23  -1    3.64    1.28
   3 -23  -1    1.95    1.92
  -3  23  -1    1.93    1.01
   3 -23  -1    3.23    1.65
  -3  23  -1    3.87    2.31
   3  23   1    3.05    1.01
  -3 -23   1    2.39    1.17
  -3  23  -1    2.65    1.33
   3  23  -2   14.95    2.06
   3  23  -2   16.85    1.63
  -3 -23  -2   18.07    2.02
  -3 -23   2   17.43    1.61
  -3  23  -2   14.20    1.97
   3 -23  -2   16.67    1.69
  -3  23  -2   16.70    1.78
   3 -23  -2   17.87    1.44
  -3  23  -2   18.56    1.51
  -3 -23  -3    9.78    1.89
   3  23  -3   17.79    1.85
   3 -23   3   12.70    1.31
  -3  23  -3   19.58    2.61
  -3  23  -3   11.25    1.23
   3 -23  -4    2.09    0.68
  -3  23  -4    2.43    0.73
  -4  23   0    0.22    0.62
   4  23   0    1.65    1.20
   4 -23   0   -1.65    1.29
  -4 -23   0   -0.03    1.01
  -4  23   0    0.16    1.20
  -4  23   1    0.15    1.14
   4  23  -1    1.47    2.26
   4 -23   1    2.43    1.06
   4 -23   1    2.18    1.21
  -4 -23  -1    0.04    1.04
  -4  23   1   -0.41    1.02
  -4  23  -1    0.79    1.11
  -4  23  -1    0.95    0.77
   4 -23  -1    1.99    1.32
   4  23   1   -0.03    1.40
   4 -23  -1    1.44    0.88
  -4 -23   1    1.49    1.39
   4 -23  -1    0.82    2.16
  -4 -23  -2    6.29    1.57
   4  23  -2    6.71    1.22
   4 -23   2    4.38    1.21
  -4  23  -2    3.72    0.98
   4 -23  -2    3.94    0.94
  -4 -23   2    3.44    0.89
   4 -23  -2    5.02    1.20
  -4  23  -2    5.01    1.45
   4  23  -3   -0.28    0.98
   4 -23   3   -0.39    0.82
  -4 -23  -3   -1.89    1.51
   4 -23  -3    0.53    0.97
  -4  23  -3   -0.36    1.45
   4 -23  -3    0.57    0.67
  -4  23  -3    0.53    0.63
   4 -23  -4    0.03    0.68
  -4  23  -4    0.63    1.00
   5  23   0    1.31    1.27
   5 -23   0    0.61    1.60
   5 -23   0   -2.04    1.86
  -5  23   0    2.56    1.07
  -5 -23   0    0.82    0.96
  -5  23   0    1.49    0.82
  -5  23   1    3.34    1.00
  -5  23   1    3.07    1.47
   5 -23   1    2.31    1.17
   5  23  -1    2.85    2.24
  -5 -23  -1    2.83    1.17
  -5  23  -1    4.85    1.08
  -5  23  -1    3.14    1.06
   5  23   1    3.99    1.20
  -5 -23   1    3.52    1.03
   5 -23  -1    5.35    1.43
   5 -23  -1    2.28    0.84
   5  23  -2    1.18    1.26
  -5 -23  -2    1.17    1.11
   5 -23  -2   -0.37    1.03
  -5  23  -2   -0.39    1.12
   5 -23  -2    1.33    0.75
  -5  23  -2    0.10    0.69
   5 -23   3    2.28    0.92
  -5 -23  -3    2.84    1.37
   5 -23  -3    3.48    0.81
  -5  23  -3    7.53    1.78
  -5  23  -3    3.55    0.77
  -6  23   0    3.91    0.98
  -6 -23   0    2.79    0.99
  -6  23   0    2.87    1.09
   6 -23   0    2.30    1.58
  -6 -23  -1    0.56    0.95
  -6  23   1    1.50    0.89
   6 -23  -1    0.99    0.74
  -6  23  -1    1.03    0.76
  -6  23  -1    0.65    1.07
   6 -23  -1    0.90    1.42
  -6 -23   1   -0.02    0.78
  -6 -23  -2   -1.61    1.66
  -6  23  -2    0.41    1.79
  -6  23  -2   -0.35    0.56
   6 -23  -2    0.82    0.71
   6 -23  -2    3.45    2.07
  -6 -23  -3    3.22    1.47
   6 -23   3    3.29    0.99
   6 -23  -3    2.69    0.72
  -6  23  -3    1.96    0.60
  -6  23  -3    2.23    1.30
  -7  23   0   -0.57    0.99
  -7 -23   0    0.95    0.83
  -7  23   0   -0.18    0.94
  -7 -23  -1    0.64    0.92
  -7  23  -1    4.10    1.17
  -7  23  -1    3.32    1.02
   7 -23  -1    3.16    0.86
  -7 -23  -2    0.30    0.91
  -7  23  -2    0.50    0.62
   7 -23  -2    1.37    0.69
  -7  23  -2    1.44    0.99
  -8 -23   0    1.23    0.77
  -8  23   0   -0.07    0.80
  -8 -23  -1    1.01    0.79
   8 -23  -1    0.84    1.14
  -8  23  -1    0.77    0.92
  -8  23  -1    0.57    0.69
  -8  23  -2    0.96    0.85
   8 -23  -2   -0.85    1.08
   0  24   0    0.16    1.26
   0  24   0    0.20    1.00
   0 -24   0    1.01    1.48
   0  24   0   -0.91    0.91
   0  24  -1    0.24    0.80
   0  24  -1    0.03    1.03
   0 -24  -1   -0.90    1.25
   0  24  -1    0.16    1.40
   0  24  -2    1.46    1.13
   0  24  -2    2.40    1.85
   0 -24  -2    0.16    0.98
   0 -24   2    1.62    0.95
   0 -24  -2   -2.02    1.73
   0  24  -2   -0.08    0.86
   0  24  -3   -0.07    0.89
   0 -24   3    2.02    0.94
   0 -24  -3    0.74    0.89
  -1  24   0    5.44    1.10
  -1 -24   0    4.37    1.46
   1 -24   0    6.50    1.75
  -1  24   0    3.60    1.49
   1  24   0    6.85    1.35
  -1  24   0    4.57    1.28
   1  24  -1    3.34    1.62
  -1 -24  -1    3.87    1.40
   1 -24   1    1.39    1.21
  -1  24   1    2.35    1.33
   1  24  -1    0.95    0.97
   1 -24   1    0.91    1.57
   1  24  -1    0.87    1.08
  -1  24  -1    1.36    0.94
  -1  24  -1    1.96    1.46
  -1  24  -1    2.20    1.03
   1 -24  -1    3.69    1.43
   1  24  -2    1.85    1.38
   1  24  -2   -1.39    1.92
   1 -24   2   -0.92    0.87
   1  24  -2    2.36    1.07
  -1 -24  -2    1.83    1.49
   1 -24  -2    1.07    0.91
  -1 -24   2    3.27    0.93
  -1  24  -2    2.56    1.61
   1 -24  -2   -0.96    2.67
  -1  24  -2    1.30    0.80
  -1  24  -2    2.15    1.20
  -1 -24  -3    6.05    1.29
   1  24  -3    6.28    1.54
  -1 -24   3    5.44    0.80
   1 -24  -3    4.70    1.04
  -1  24  -3    6.86    1.04
  -1  24  -3    2.00    3.80
   1 -24  -4    7.91    1.45
  -2 -24   0    9.39    1.99
   2  24   0   15.49    1.67
  -2  24   0    6.35    2.04
   2 -24   0    9.53    1.53
  -2  24   1    1.16    0.76
   2 -24   1    2.82    1.22
  -2 -24  -1    1.41    1.12
   2 -24   1    0.13    1.64
   2  24  -1   -1.08    1.12
   2  24  -1    1.29    1.51
   2  24  -1    0.82    1.22
  -2  24  -1    3.32    0.96
   2 -24  -1    1.30    1.61
   2 -24  -1    3.39    1.06
  -2  24  -1    3.24    1.38
  -2 -24   1    2.02    1.09
  -2 -24  -2    0.51    1.27
   2  24  -2    2.08    2.36
   2 -24   2    3.95    1.11
  -2  24  -2    4.65    1.48
  -2  24  -2    2.95    0.91
   2 -24  -2    0.91    1.80
   2 -24  -2    2.58    0.89
  -2 -24   2    2.93    0.94
   2 -24   3   -0.39    0.75
  -2 -24  -3    0.27    2.48
   2 -24  -3    0.53    0.72
  -2  24  -3    0.04    2.01
  -2  24  -3    1.32    0.95
   2 -24  -4    1.58    0.90
   3 -24   0    1.24    1.24
  -3 -24   0    1.51    1.03
   3  24   0    4.11    2.22
  -3  24   0    0.68    1.09
  -3  24   0    2.02    0.95
   3 -24   1    3.91    1.24
   3  24  -1    4.08    1.33
   3 -24   1    2.11    1.18
  -3 -24  -1    1.68    1.13
  -3  24   1    3.18    1.02
  -3  24  -1    2.27    0.84
  -3 -24   1    2.15    1.00
   3 -24  -1    4.76    1.93
   3 -24  -1    2.32    0.97
  -3  24  -1    3.03    1.29
   3 -24   2    0.88    1.04
  -3 -24  -2    0.10    1.26
   3 -24  -2    1.19    1.70
  -3 -24   2   -0.98    0.80
  -3  24  -2    0.41    0.72
  -3  24  -2   -1.00    1.30
   3 -24  -2   -0.07    0.75
  -3 -24  -3    2.07    1.93
   3 -24   3    0.07    1.00
  -3  24  -3    1.17    0.73
  -3  24  -3   -2.89    1.73
   3 -24  -3   -0.21    0.63
   4  24   0    0.19    1.11
  -4  24   0   -1.10    0.58
  -4 -24   0   -0.12    0.96
   4 -24   0    2.16    1.42
  -4  24   0    0.82    1.16
   4 -24   1    2.97    1.25
  -4 -24  -1    3.05    1.18
  -4  24   1    3.62    0.94
  -4 -24   1    4.84    1.09
   4 -24  -1   -0.20    1.97
  -4  24  -1    5.31    1.34
  -4  24  -1    5.13    0.99
   4 -24  -1    3.86    0.94
   4 -24   2    6.17    1.27
  -4 -24  -2    3.73    1.33
   4 -24  -2    4.34    0.87
  -4  24  -2    6.24    1.07
   4 -24  -2    0.28    1.80
  -4  24  -2    3.85    1.33
  -4 -24   2    6.11    1.04
   4 -24   3    1.96    0.88
  -4 -24  -3    0.64    1.39
  -4  24  -3   -0.18    1.97
  -4  24  -3    4.61    0.89
   4 -24  -3    1.38    0.70
  -5  24   0    0.50    0.78
  -5  24   0    0.49    0.95
   5 -24   0   -0.58    1.47
  -5 -24   0   -0.37    0.95
  -5  24   1    5.21    1.07
  -5 -24  -1    3.32    1.26
   5 -24   1    4.69    1.20
   5 -24  -1    4.35    1.18
  -5  24  -1    2.61    0.85
  -5  24  -1    4.69    1.23
  -5 -24   1    4.64    1.07
  -5 -24  -2   -0.37    1.07
   5 -24   2    3.75    1.34
  -5  24  -2    1.07    0.72
   5 -24  -2    1.35    0.73
  -5  24  -2    1.77    1.33
  -5 -24  -3    1.73    1.58
   5 -24   3    1.89    0.84
  -5  24  -3    0.07    1.32
  -5  24  -3   -0.32    0.58
   5 -24  -3    0.77    0.64
  -6  24   0    1.24    0.95
   6 -24   0   -0.21    1.57
  -6 -24   0    0.62    0.87
  -6  24   0   -0.60    0.62
  -6 -24  -1    1.05    1.03
   6 -24   1    1.76    1.24
   6 -24  -1    0.79    0.91
  -6  24  -1    0.13    1.00
  -6 -24   1   -0.43    0.66
  -6  24  -1    1.36    0.80
   6 -24   2    4.04    1.18
  -6 -24  -2   -0.32    0.97
  -6  24  -2    3.45    1.18
  -6  24  -2    0.11    0.61
   6 -24  -2    0.56    0.74
  -7  24   0    1.86    0.75
  -7 -24   0    2.57    0.80
  -7 -24  -1   -1.79    0.77
   7 -24   1    0.70    1.23
  -7  24  -1    0.65    0.81
  -7  24  -1    0.21    0.60
  -7 -24  -2    0.58    0.97
   7 -24   2    1.20    1.01
  -7  24  -2   -0.81    0.84
  -7  24  -2   -0.48    0.85
  -8 -24  -1    2.90    1.06
   0 -25   0    1.26    1.20
   0  25   0    0.54    1.20
   0  25   0    0.24    0.76
   0  25  -1    1.73    0.94
   0  25  -1    1.39    1.28
   0 -25   1   -0.15    0.95
   0  25  -1    1.16    1.14
   0 -25  -1   -0.04    1.24
   0  25  -2   -1.39    1.73
   0  25  -2   -2.18    1.36
   0 -25   2    1.18    0.95
   0 -25  -2    1.00    1.74
   0  25  -3    3.08    1.14
   1  25   0    1.72    0.94
  -1  25   0   -0.19    0.79
  -1 -25   0    1.18    1.02
  -1  25   0    1.06    1.22
   1 -25   0   -0.23    1.10
   1  25   0    0.96    1.38
  -1 -25  -1   -0.44    1.08
   1  25  -1    0.58    1.50
   1  25  -1    0.35    0.98
   1  25  -1    1.26    1.65
   1 -25   1    1.71    1.10
   1 -25  -1    1.79    1.31
  -1  25  -1    0.88    1.27
  -1  25  -1    0.45    0.79
  -1 -25   1    1.77    0.92
   1 -25   2    0.90    0.89
  -1 -25  -2   -0.57    1.47
   1  25  -2    2.80    2.03
   1  25  -2    0.55    1.09
  -1 -25   2   -0.79    0.78
   1 -25  -2    0.85    1.76
  -1  25  -2   -1.08    0.73
  -1  25  -2    2.30    1.71
   1 -25  -2   -2.79    1.94
   1 -25   3    7.54    0.88
   1 -25  -3    7.34    1.38
  -1  25  -3    4.49    0.94
  -2  25   0    1.58    0.79
  -2  25   0    0.64    1.18
   2 -25   0    2.38    1.19
  -2 -25   0   -1.09    0.94
   2 -25   1   -1.33    0.91
  -2  25   1   -0.45    0.65
  -2 -25  -1   -0.31    1.09
   2  25  -1    0.03    1.25
   2 -25  -1    1.09    1.78
  -2  25  -1    0.41    0.75
  -2 -25   1    0.80    0.94
  -2  25  -1   -0.66    1.30
   2 -25   2    1.90    1.03
  -2 -25  -2    2.08    1.36
   2 -25  -2    2.33    1.00
  -2  25  -2    1.00    0.80
  -2  25  -2    3.48    1.65
  -2 -25   2    1.76    1.21
   2 -25   3    1.33    0.88
   2 -25  -3   -0.01    1.03
  -2  25  -3    0.32    0.73
  -3  25   0    9.48    1.28
   3 -25   0    5.22    1.30
  -3 -25   0    9.37    1.41
  -3  25   0   12.78    1.80
  -3  25   1    5.16    1.11
  -3 -25  -1    3.46    1.12
   3 -25   1    3.47    1.26
  -3  25  -1    3.59    1.31
  -3 -25   1    5.51    1.16
   3 -25  -1    3.23    1.68
  -3  25  -1    4.46    0.96
   3 -25   2    3.31    1.07
  -3 -25  -2    3.33    1.35
  -3  25  -2    2.77    0.86
  -3 -25   2    4.47    1.08
   3 -25  -2    1.05    0.88
  -3  25  -2    2.69    1.46
   3 -25   3    2.77    0.84
  -3  25  -3    1.98    0.68
   3 -25  -3    0.10    0.90
   4 -25   0    0.46    1.26
  -4  25   0    0.81    0.73
  -4 -25   0    1.21    1.09
  -4  25   0    1.07    1.02
  -4 -25  -1    5.55    1.26
   4 -25   1    4.83    1.44
  -4  25  -1    6.53    1.44
  -4  25  -1    4.15    0.94
   4 -25  -1    1.82    1.99
  -4 -25   1    6.15    1.05
  -4 -25  -2    2.53    1.31
   4 -25   2    1.91    1.01
   4 -25  -2    2.65    0.86
  -4  25  -2    2.22    0.70
  -4  25  -2    3.38    1.36
   4 -25   3    1.17    0.94
  -4  25  -3    1.98    1.00
  -5  25   0    3.87    1.11
   5 -25   0    3.92    1.63
  -5  25   0    3.97    0.90
  -5 -25   0    3.80    1.06
   5 -25   1    4.59    1.17
  -5 -25  -1    1.86    1.38
  -5 -25   1    2.26    0.81
  -5  25  -1    2.67    1.36
  -5  25  -1    2.04    0.86
   5 -25   2    1.23    0.93
  -5 -25  -2    0.72    1.08
   5 -25  -2    2.67    1.07
  -5  25  -2    3.04    1.17
  -5  25  -2    2.15    0.74
  -6 -25   0    3.56    0.88
  -6  25   0    5.13    0.97
  -6  25   0    6.06    1.25
   6 -25   1   -0.56    1.11
  -6 -25  -1    1.28    0.90
  -6  25  -1    1.33    0.96
  -6  25  -1    0.54    0.58
   6 -25   2    1.76    1.11
  -6 -25  -2    2.18    1.10
  -6  25  -2    0.91    0.89
  -6  25  -2    0.21    1.51
  -7 -25  -1    1.21    1.04
  -7  25  -1    0.59    0.69
   0 -26   0   -0.10    0.98
   0  26   0   -0.96    0.74
   0 -26   1    0.64    0.95
   0 -26  -1   -1.50    1.50
   0  26  -1    0.82    1.89
   0  26  -1   -2.34    1.17
   0  26  -2   -0.47    1.79
   0  26  -2   -0.43    0.86
   0 -26  -2   -1.36    3.05
   0 -26   2    0.36    0.93
  -1 -26   0    1.85    1.07
  -1  26   0    2.96    0.96
   1 -26   0    3.60    1.25
   1 -26   1    3.33    1.18
  -1 -26  -1    3.11    1.50
   1  26  -1    3.30    1.17
  -1  26  -1    3.08    0.85
  -1  26  -1    2.95    1.48
   1 -26  -1    1.84    1.45
  -1 -26   1    1.92    1.05
  -1 -26  -2    0.85    1.39
   1 -26   2    1.89    1.07
  -1  26  -2    1.33    0.80
  -1 -26   2    2.53    0.85
  -1  26  -2   -0.57    1.80
  -2  26   0   -0.41    0.71
  -2  26   0    1.24    1.14
  -2 -26   0    1.28    1.05
   2 -26   0    0.31    1.34
  -2 -26  -1    1.33    1.05
   2 -26   1    1.45    0.98
  -2  26  -1    2.25    1.51
   2 -26  -1    2.95    1.46
  -2 -26   1    1.87    0.96
  -2  26  -1    1.69    0.79
  -2 -26  -2    1.81    1.33
   2 -26   2    1.03    0.87
  -2 -26   2    0.50    0.75
  -2  26  -2    0.79    1.55
  -2  26  -2    0.68    0.75
  -3 -26   0    2.22    1.04
   3 -26   0    3.01    1.27
  -3  26   0    1.81    1.08
  -3  26   0    2.05    0.90
   3 -26   1    2.58    1.13
  -3 -26  -1    0.53    1.05
  -3 -26   1    0.45    0.99
  -3  26  -1    2.78    1.69
  -3  26  -1    2.31    1.31
   3 -26  -1    1.86    2.00
  -3 -26  -2    0.45    1.24
   3 -26   2   -0.23    0.90
  -3  26  -2    0.93    0.66
  -3  26  -2   -2.56    1.24
  -4 -26   0   -0.29    1.42
   4 -26   0   -1.53    1.26
  -4  26   0    0.27    0.90
  -4  26   0   -0.10    1.12
   4 -26   1    0.37    1.00
  -4 -26  -1    0.27    0.92
  -4  26  -1    1.10    0.76
  -4  26  -1    1.39    1.11
  -4 -26   1    1.19    1.41
  -4 -26  -2    0.69    1.14
   4 -26   2    1.25    0.87
  -4  26  -2    2.03    0.75
  -4  26  -2    0.55    1.20
  -5 -26   0   -0.04    0.84
   5 -26   0    1.74    1.55
  -5  26   0   -0.58    0.63
   5 -26   1    1.81    1.15
  -5 -26  -1    0.48    0.93
  -5  26  -1    2.78    1.02
  -5  26  -1    1.31    0.68
  -5 -26  -2   -0.22    0.93
   5 -26   2    0.83    0.89
  -5  26  -2   -1.23    0.96
  -5  26  -2    0.38    0.68
  -6  26   0    2.96    0.79
  -6 -26   0    4.63    1.04
  -6 -26  -1    1.27    1.03
  -6  26  -1    0.35    0.81
  -6  26  -1    0.53    1.19
   0 -27   0   -0.22    0.99
   0 -27  -1    0.61    1.26
   0 -27   1    1.12    0.95
   0  27  -1   -0.37    0.92
   0 -27   2    0.99    1.03
   1 -27   0    1.24    1.00
  -1 -27   0    1.66    1.01
  -1 -27  -1    0.74    1.04
   1 -27   1    2.81    1.06
  -1  27  -1    0.71    1.21
  -1 -27   1    3.45    1.00
  -1  27  -1    2.19    0.85
   1 -27  -1    0.45    1.26
   1 -27   2    0.52    0.83
  -1  27  -2    1.51    1.89
  -1 -27   2    3.21    1.00
  -1  27  -2    0.55    1.34
  -2 -27   0    1.15    1.03
  -2  27   0    0.08    0.69
   2 -27   0    1.72    1.14
   2 -27   1    0.77    1.04
  -2 -27  -1    1.12    1.12
  -2  27  -1    3.13    1.20
  -2 -27   1   -0.29    0.86
  -2  27  -1    0.47    0.67
   2 -27  -1   -0.14    1.41
   2 -27   2   -0.14    0.84
  -2  27  -2    0.07    1.39
  -2  27  -2    0.02    0.72
  -3  27   0    1.45    0.74
   3 -27   0    0.57    1.25
  -3 -27   0    2.34    1.00
   3 -27   1    0.26    0.99
  -3 -27  -1    1.04    1.03
  -3 -27   1    1.34    0.83
  -3  27  -1    2.41    0.80
  -3  27  -1    0.55    1.04
   3 -27   2   -0.46    1.04
  -3  27  -2    0.17    0.68
  -3  27  -2    1.91    1.48
  -4  27   0   -1.34    0.60
  -4 -27   0   -0.15    0.82
  -4 -27  -1    0.70    0.97
   4 -27   1    2.27    1.36
  -4  27  -1    2.28    0.67
  -4  27  -1    0.04    0.96
  -5 -27   0    0.14    0.91
   0 -28   0    0.38    0.93
   0 -28   1   -0.62    0.87
   0 -28  -1    1.54    1.27
   1 -28   0    6.97    1.25
  -1 -28   0    7.50    1.22
  -1 -28  -1   -0.32    1.03
   1 -28   1   -0.48    0.85
  -1 -28   1    2.20    0.87
  -2 -28   0    0.08    0.92
   2 -28   0   -1.01    0.96
  -2 -28  -1    2.35    1.13
   2 -28   1    1.21    0.95
  -2  28  -1   -0.92    0.98
  -3 -28   0    3.94    1.41
   3 -28   1    3.70    1.37
  -3 -28  -1    0.87    1.17
  -3  28  -1    0.28    1.03
   0   0   0    0.00    0.00
;
_shelx_hkl_checksum   99306

