

data_22mcd033
_audit_block_doi                 10.5517/ccdc.csd.cc2j6bx0
_database_code_depnum_ccdc_archive 'CCDC 2329802'
loop_
_citation_id
_citation_doi
_citation_year
1 10.1002/anie.202408258 2024
loop_
_audit_author_name
_audit_author_address
'Guillermo Zaragoza'
;Universidade de Santiago de Compostela
Spain
;
_audit_update_record             
;
2024-01-30 deposited with the CCDC.	2024-12-03 downloaded from the CCDC.
;
_audit_creation_date             2023-06-10
_audit_creation_method           
;
Olex2 1.5
(compiled 2023.03.06 svn.rbb2c1857 for OlexSys, GUI svn.r6748)
;
_shelx_SHELXL_version_number     2018/3
loop_
_audit_author_email
andy.arribas.domingo@gmail.com
_chemical_name_common            10f
_chemical_name_systematic        
cis-N,N-diethyl-7,8-dimethyl-5,6,7,8-tetrahydroindolizine-1-carboxamide
_chemical_formula_moiety         'C15 H24 N2 O'
_chemical_formula_sum            'C15 H24 N2 O'
_chemical_formula_weight         248.36
_chemical_melting_point          'Not measured'
loop_
_atom_type_symbol
_atom_type_description
_atom_type_scat_dispersion_real
_atom_type_scat_dispersion_imag
_atom_type_scat_source
C C 0.0033 0.0016 'International Tables Vol C Tables 4.2.6.8 and 6.1.1.4'
H H 0.0000 0.0000 'International Tables Vol C Tables 4.2.6.8 and 6.1.1.4'
N N 0.0061 0.0033 'International Tables Vol C Tables 4.2.6.8 and 6.1.1.4'
O O 0.0106 0.0060 'International Tables Vol C Tables 4.2.6.8 and 6.1.1.4'

_shelx_space_group_comment       
;
The symmetry employed for this shelxl refinement is uniquely defined
by the following loop, which should always be used as a source of
symmetry information in preference to the above space-group names.
They are only intended as comments.
;
_space_group_crystal_system      triclinic
_space_group_IT_number           2
_space_group_name_H-M_alt        'P -1'
_space_group_name_Hall           '-P 1'
loop_
_space_group_symop_operation_xyz
'x, y, z'
'-x, -y, -z'

_cell_length_a                   7.4665(4)
_cell_length_b                   8.8596(5)
_cell_length_c                   11.5128(6)
_cell_angle_alpha                102.537(2)
_cell_angle_beta                 102.308(2)
_cell_angle_gamma                99.663(2)
_cell_volume                     707.79(7)
_cell_formula_units_Z            2
_cell_measurement_reflns_used    5699
_cell_measurement_temperature    293(2)
_cell_measurement_theta_max      28.08
_cell_measurement_theta_min      2.42
_shelx_estimated_absorpt_T_max   0.993
_shelx_estimated_absorpt_T_min   0.989
_exptl_absorpt_coefficient_mu    0.073
_exptl_absorpt_correction_T_max  0.9583
_exptl_absorpt_correction_T_min  0.9434
_exptl_absorpt_correction_type   multi-scan
_exptl_absorpt_process_details   
;
SADABS-2016/2 (Bruker,2016/2) was used for absorption correction.
wR2(int) was 0.0633 before and 0.0502 after correction.
The Ratio of minimum to maximum transmission is 0.9845.
The \l/2 correction factor is Not present.
;
_exptl_absorpt_special_details   ?
_exptl_crystal_colour            colourless
_exptl_crystal_colour_primary    colourless
_exptl_crystal_density_diffrn    1.165
_exptl_crystal_density_meas      ?
_exptl_crystal_density_method    ?
_exptl_crystal_description       block
_exptl_crystal_F_000             272
_exptl_crystal_size_max          0.15
_exptl_crystal_size_mid          0.14
_exptl_crystal_size_min          0.1
_exptl_transmission_factor_max   ?
_exptl_transmission_factor_min   ?
_diffrn_reflns_av_R_equivalents  0.0466
_diffrn_reflns_av_unetI/netI     0.0310
_diffrn_reflns_Laue_measured_fraction_full 0.996
_diffrn_reflns_Laue_measured_fraction_max 0.997
_diffrn_reflns_limit_h_max       9
_diffrn_reflns_limit_h_min       -9
_diffrn_reflns_limit_k_max       11
_diffrn_reflns_limit_k_min       -11
_diffrn_reflns_limit_l_max       15
_diffrn_reflns_limit_l_min       -15
_diffrn_reflns_number            23372
_diffrn_reflns_point_group_measured_fraction_full 0.996
_diffrn_reflns_point_group_measured_fraction_max 0.997
_diffrn_reflns_theta_full        25.242
_diffrn_reflns_theta_max         28.282
_diffrn_reflns_theta_min         2.417
_diffrn_ambient_temperature      293(2)
_diffrn_detector_area_resol_mean ?
_diffrn_measured_fraction_theta_full 0.996
_diffrn_measured_fraction_theta_max 0.997
_diffrn_measurement_device_type  'Bruker APEX-II CCD'
_diffrn_measurement_method       '\f and \w scans'
_diffrn_radiation_type           MoK\a
_diffrn_radiation_wavelength     0.71073
_diffrn_source                   ?
_diffrn_source_current           1.4
_diffrn_source_power             0.07
_diffrn_source_voltage           50.0
_diffrn_standards_number         0
_reflns_Friedel_coverage         0.000
_reflns_Friedel_fraction_full    .
_reflns_Friedel_fraction_max     .
_reflns_number_gt                2615
_reflns_number_total             3495
_reflns_special_details          
;
 Reflections were merged by SHELXL according to the crystal
 class for the calculation of statistics and refinement.
 
 _reflns_Friedel_fraction is defined as the number of unique
 Friedel pairs measured divided by the number that would be
 possible theoretically, ignoring centric projections and
 systematic absences.
;
_reflns_threshold_expression     'I > 2\s(I)'
_computing_cell_refinement       'SAINT V8.40B (?, 2016)'
_computing_data_collection       'BRUKER APEX4'
_computing_data_reduction        'SAINT V8.40B (?, 2016)'
_computing_molecular_graphics    'Olex2 1.5 (Dolomanov et al., 2009)'
_computing_publication_material  'Olex2 1.5 (Dolomanov et al., 2009)'
_computing_structure_refinement  'SHELXL 2018/3 (Sheldrick, 2015)'
_computing_structure_solution    ?
_refine_diff_density_max         0.195
_refine_diff_density_min         -0.156
_refine_diff_density_rms         0.033
_refine_ls_extinction_coef       .
_refine_ls_extinction_method     none
_refine_ls_goodness_of_fit_ref   1.028
_refine_ls_hydrogen_treatment    constr
_refine_ls_matrix_type           full
_refine_ls_number_parameters     167
_refine_ls_number_reflns         3495
_refine_ls_number_restraints     0
_refine_ls_R_factor_all          0.0688
_refine_ls_R_factor_gt           0.0467
_refine_ls_restrained_S_all      1.028
_refine_ls_shift/su_max          0.000
_refine_ls_shift/su_mean         0.000
_refine_ls_structure_factor_coef Fsqd
_refine_ls_weighting_details     
'w=1/[\s^2^(Fo^2^)+(0.0445P)^2^+0.1890P] where P=(Fo^2^+2Fc^2^)/3'
_refine_ls_weighting_scheme      calc
_refine_ls_wR_factor_gt          0.1052
_refine_ls_wR_factor_ref         0.1172
_refine_special_details          ?
_olex2_refinement_description    
;
1. Fixed Uiso
 At 1.2 times of:
  All C(H) groups, All C(H,H) groups
 At 1.5 times of:
  All C(H,H,H) groups
2.a Ternary CH refined with riding coordinates:
 C5(H5), C3(H3)
2.b Secondary CH2 refined with riding coordinates:
 C14(H14A,H14B), C12(H12A,H12B), C1(H1A,H1B), C2(H2A,H2B)
2.c Aromatic/amide H refined with riding coordinates:
 C10(H10), C9(H9)
2.d Idealised Me refined as rotating group:
 C6(H6A,H6B,H6C), C15(H15A,H15B,H15C), C13(H13A,H13B,H13C), C4(H4A,H4B,H4C)
;
_atom_sites_solution_hydrogens   geom
_atom_sites_solution_primary     ?
_atom_sites_solution_secondary   ?
loop_
_atom_site_label
_atom_site_type_symbol
_atom_site_fract_x
_atom_site_fract_y
_atom_site_fract_z
_atom_site_U_iso_or_equiv
_atom_site_adp_type
_atom_site_occupancy
_atom_site_site_symmetry_order
_atom_site_calc_flag
_atom_site_refinement_flags_posn
_atom_site_refinement_flags_adp
_atom_site_refinement_flags_occupancy
_atom_site_disorder_assembly
_atom_site_disorder_group
O1 O 0.35324(14) 0.89651(13) 0.74106(10) 0.0475(3) Uani 1 1 d . . . . .
N1 N 0.73865(15) 0.80157(13) 0.53212(11) 0.0344(3) Uani 1 1 d . . . . .
N2 N 0.51128(16) 0.78476(14) 0.87561(10) 0.0371(3) Uani 1 1 d . . . . .
C7 C 0.57727(17) 0.79762(14) 0.57050(12) 0.0295(3) Uani 1 1 d . . . . .
C8 C 0.62761(17) 0.82616(15) 0.69790(12) 0.0327(3) Uani 1 1 d . . . . .
C5 C 0.38693(17) 0.76105(15) 0.48057(12) 0.0308(3) Uani 1 1 d . . . . .
H5 H 0.320848 0.841822 0.510819 0.037 Uiso 1 1 calc R U . . .
C11 C 0.48969(18) 0.83867(16) 0.77252(12) 0.0339(3) Uani 1 1 d . . . . .
C14 C 0.6513(2) 0.69768(17) 0.91687(13) 0.0406(3) Uani 1 1 d . . . . .
H14A H 0.711463 0.666011 0.851551 0.049 Uiso 1 1 calc R U . . .
H14B H 0.588359 0.602022 0.932587 0.049 Uiso 1 1 calc R U . . .
C10 C 0.89050(19) 0.83540(17) 0.63182(14) 0.0416(3) Uani 1 1 d . . . . .
H10 H 1.015534 0.846002 0.629226 0.050 Uiso 1 1 calc R U . . .
C6 C 0.2704(2) 0.59990(17) 0.47806(15) 0.0431(4) Uani 1 1 d . . . . .
H6A H 0.325104 0.516789 0.442037 0.065 Uiso 1 1 calc R U . . .
H6B H 0.143910 0.585785 0.429944 0.065 Uiso 1 1 calc R U . . .
H6C H 0.269199 0.596208 0.560618 0.065 Uiso 1 1 calc R U . . .
C9 C 0.82758(19) 0.85082(17) 0.73500(14) 0.0407(3) Uani 1 1 d . . . . .
H9 H 0.901361 0.873384 0.815360 0.049 Uiso 1 1 calc R U . . .
C3 C 0.4089(2) 0.77732(17) 0.35354(13) 0.0383(3) Uani 1 1 d . . . . .
H3 H 0.454921 0.890502 0.362096 0.046 Uiso 1 1 calc R U . . .
C12 C 0.3631(2) 0.7893(2) 0.94069(14) 0.0470(4) Uani 1 1 d . . . . .
H12A H 0.316005 0.884408 0.937677 0.056 Uiso 1 1 calc R U . . .
H12B H 0.415686 0.794591 1.026495 0.056 Uiso 1 1 calc R U . . .
C1 C 0.7495(2) 0.77536(19) 0.40419(14) 0.0446(4) Uani 1 1 d . . . . .
H1A H 0.839329 0.710494 0.390410 0.054 Uiso 1 1 calc R U . . .
H1B H 0.792477 0.876296 0.387813 0.054 Uiso 1 1 calc R U . . .
C15 C 0.8009(2) 0.7942(2) 1.03266(15) 0.0551(4) Uani 1 1 d . . . . .
H15A H 0.875161 0.881392 1.014647 0.083 Uiso 1 1 calc R U . . .
H15B H 0.880551 0.728058 1.061097 0.083 Uiso 1 1 calc R U . . .
H15C H 0.741633 0.834222 1.095425 0.083 Uiso 1 1 calc R U . . .
C2 C 0.5586(2) 0.69345(19) 0.31790(14) 0.0447(4) Uani 1 1 d . . . . .
H2A H 0.528013 0.583943 0.321320 0.054 Uiso 1 1 calc R U . . .
H2B H 0.561217 0.693799 0.234088 0.054 Uiso 1 1 calc R U . . .
C13 C 0.2016(2) 0.6454(2) 0.88521(18) 0.0605(5) Uani 1 1 d . . . . .
H13A H 0.143323 0.643957 0.802045 0.091 Uiso 1 1 calc R U . . .
H13B H 0.110801 0.649952 0.932919 0.091 Uiso 1 1 calc R U . . .
H13C H 0.248318 0.550831 0.885455 0.091 Uiso 1 1 calc R U . . .
C4 C 0.2230(2) 0.7237(2) 0.25493(15) 0.0563(4) Uani 1 1 d . . . . .
H4A H 0.179387 0.610951 0.237940 0.084 Uiso 1 1 calc R U . . .
H4B H 0.240662 0.750611 0.181102 0.084 Uiso 1 1 calc R U . . .
H4C H 0.131688 0.775834 0.283509 0.084 Uiso 1 1 calc R U . . .

loop_
_atom_site_aniso_label
_atom_site_aniso_U_11
_atom_site_aniso_U_22
_atom_site_aniso_U_33
_atom_site_aniso_U_23
_atom_site_aniso_U_13
_atom_site_aniso_U_12
O1 0.0423(6) 0.0661(7) 0.0432(6) 0.0214(5) 0.0119(5) 0.0266(5)
N1 0.0291(5) 0.0359(6) 0.0390(6) 0.0121(5) 0.0098(5) 0.0056(4)
N2 0.0370(6) 0.0431(6) 0.0313(6) 0.0109(5) 0.0064(5) 0.0108(5)
C7 0.0281(6) 0.0270(6) 0.0342(7) 0.0099(5) 0.0073(5) 0.0067(5)
C8 0.0293(6) 0.0327(7) 0.0340(7) 0.0089(5) 0.0038(5) 0.0068(5)
C5 0.0296(6) 0.0318(6) 0.0312(7) 0.0095(5) 0.0057(5) 0.0092(5)
C11 0.0325(7) 0.0353(7) 0.0301(7) 0.0060(5) 0.0028(5) 0.0071(5)
C14 0.0425(8) 0.0399(7) 0.0386(8) 0.0140(6) 0.0044(6) 0.0106(6)
C10 0.0257(6) 0.0461(8) 0.0500(9) 0.0144(7) 0.0058(6) 0.0031(6)
C6 0.0340(7) 0.0426(8) 0.0488(9) 0.0172(7) 0.0032(6) 0.0010(6)
C9 0.0308(7) 0.0429(8) 0.0406(8) 0.0091(6) -0.0014(6) 0.0033(6)
C3 0.0424(8) 0.0401(7) 0.0333(7) 0.0127(6) 0.0068(6) 0.0113(6)
C12 0.0478(9) 0.0612(10) 0.0361(8) 0.0145(7) 0.0146(7) 0.0164(7)
C1 0.0424(8) 0.0541(9) 0.0444(9) 0.0176(7) 0.0205(7) 0.0121(7)
C15 0.0491(9) 0.0702(11) 0.0400(9) 0.0151(8) -0.0021(7) 0.0142(8)
C2 0.0504(9) 0.0514(9) 0.0353(8) 0.0113(7) 0.0151(7) 0.0149(7)
C13 0.0470(9) 0.0713(12) 0.0676(12) 0.0252(10) 0.0202(8) 0.0088(8)
C4 0.0527(10) 0.0807(12) 0.0346(8) 0.0178(8) 0.0029(7) 0.0199(9)

_geom_special_details            
;
 All esds (except the esd in the dihedral angle between two l.s. planes)
 are estimated using the full covariance matrix.  The cell esds are taken
 into account individually in the estimation of esds in distances, angles
 and torsion angles; correlations between esds in cell parameters are only
 used when they are defined by crystal symmetry.  An approximate (isotropic)
 treatment of cell esds is used for estimating esds involving l.s. planes.
;
loop_
_geom_bond_atom_site_label_1
_geom_bond_atom_site_label_2
_geom_bond_distance
_geom_bond_site_symmetry_2
_geom_bond_publ_flag
O1 C11 1.2370(16) . ?
N1 C7 1.3667(16) . ?
N1 C10 1.3692(18) . ?
N1 C1 1.4623(18) . ?
N2 C11 1.3613(17) . ?
N2 C14 1.4600(17) . ?
N2 C12 1.4639(19) . ?
C7 C8 1.3887(18) . ?
C7 C5 1.5064(17) . ?
C8 C11 1.4781(19) . ?
C8 C9 1.4274(18) . ?
C5 H5 0.9800 . ?
C5 C6 1.5332(18) . ?
C5 C3 1.5401(19) . ?
C14 H14A 0.9700 . ?
C14 H14B 0.9700 . ?
C14 C15 1.519(2) . ?
C10 H10 0.9300 . ?
C10 C9 1.356(2) . ?
C6 H6A 0.9600 . ?
C6 H6B 0.9600 . ?
C6 H6C 0.9600 . ?
C9 H9 0.9300 . ?
C3 H3 0.9800 . ?
C3 C2 1.521(2) . ?
C3 C4 1.521(2) . ?
C12 H12A 0.9700 . ?
C12 H12B 0.9700 . ?
C12 C13 1.513(2) . ?
C1 H1A 0.9700 . ?
C1 H1B 0.9700 . ?
C1 C2 1.510(2) . ?
C15 H15A 0.9600 . ?
C15 H15B 0.9600 . ?
C15 H15C 0.9600 . ?
C2 H2A 0.9700 . ?
C2 H2B 0.9700 . ?
C13 H13A 0.9600 . ?
C13 H13B 0.9600 . ?
C13 H13C 0.9600 . ?
C4 H4A 0.9600 . ?
C4 H4B 0.9600 . ?
C4 H4C 0.9600 . ?

loop_
_geom_angle_atom_site_label_1
_geom_angle_atom_site_label_2
_geom_angle_atom_site_label_3
_geom_angle
_geom_angle_site_symmetry_1
_geom_angle_site_symmetry_3
_geom_angle_publ_flag
C7 N1 C10 109.81(12) . . ?
C7 N1 C1 125.53(11) . . ?
C10 N1 C1 124.66(12) . . ?
C11 N2 C14 126.16(12) . . ?
C11 N2 C12 117.59(12) . . ?
C14 N2 C12 115.39(12) . . ?
N1 C7 C8 107.41(11) . . ?
N1 C7 C5 121.75(11) . . ?
C8 C7 C5 130.79(12) . . ?
C7 C8 C11 122.68(11) . . ?
C7 C8 C9 106.76(12) . . ?
C9 C8 C11 130.39(13) . . ?
C7 C5 H5 107.1 . . ?
C7 C5 C6 110.73(10) . . ?
C7 C5 C3 110.19(11) . . ?
C6 C5 H5 107.1 . . ?
C6 C5 C3 114.21(11) . . ?
C3 C5 H5 107.1 . . ?
O1 C11 N2 119.68(13) . . ?
O1 C11 C8 120.30(12) . . ?
N2 C11 C8 120.02(12) . . ?
N2 C14 H14A 109.0 . . ?
N2 C14 H14B 109.0 . . ?
N2 C14 C15 112.84(13) . . ?
H14A C14 H14B 107.8 . . ?
C15 C14 H14A 109.0 . . ?
C15 C14 H14B 109.0 . . ?
N1 C10 H10 125.8 . . ?
C9 C10 N1 108.39(12) . . ?
C9 C10 H10 125.8 . . ?
C5 C6 H6A 109.5 . . ?
C5 C6 H6B 109.5 . . ?
C5 C6 H6C 109.5 . . ?
H6A C6 H6B 109.5 . . ?
H6A C6 H6C 109.5 . . ?
H6B C6 H6C 109.5 . . ?
C8 C9 H9 126.2 . . ?
C10 C9 C8 107.61(13) . . ?
C10 C9 H9 126.2 . . ?
C5 C3 H3 107.0 . . ?
C2 C3 C5 110.21(11) . . ?
C2 C3 H3 107.0 . . ?
C4 C3 C5 112.68(12) . . ?
C4 C3 H3 107.0 . . ?
C4 C3 C2 112.71(13) . . ?
N2 C12 H12A 109.2 . . ?
N2 C12 H12B 109.2 . . ?
N2 C12 C13 112.00(13) . . ?
H12A C12 H12B 107.9 . . ?
C13 C12 H12A 109.2 . . ?
C13 C12 H12B 109.2 . . ?
N1 C1 H1A 109.6 . . ?
N1 C1 H1B 109.6 . . ?
N1 C1 C2 110.08(12) . . ?
H1A C1 H1B 108.2 . . ?
C2 C1 H1A 109.6 . . ?
C2 C1 H1B 109.6 . . ?
C14 C15 H15A 109.5 . . ?
C14 C15 H15B 109.5 . . ?
C14 C15 H15C 109.5 . . ?
H15A C15 H15B 109.5 . . ?
H15A C15 H15C 109.5 . . ?
H15B C15 H15C 109.5 . . ?
C3 C2 H2A 109.6 . . ?
C3 C2 H2B 109.6 . . ?
C1 C2 C3 110.41(12) . . ?
C1 C2 H2A 109.6 . . ?
C1 C2 H2B 109.6 . . ?
H2A C2 H2B 108.1 . . ?
C12 C13 H13A 109.5 . . ?
C12 C13 H13B 109.5 . . ?
C12 C13 H13C 109.5 . . ?
H13A C13 H13B 109.5 . . ?
H13A C13 H13C 109.5 . . ?
H13B C13 H13C 109.5 . . ?
C3 C4 H4A 109.5 . . ?
C3 C4 H4B 109.5 . . ?
C3 C4 H4C 109.5 . . ?
H4A C4 H4B 109.5 . . ?
H4A C4 H4C 109.5 . . ?
H4B C4 H4C 109.5 . . ?

loop_
_geom_torsion_atom_site_label_1
_geom_torsion_atom_site_label_2
_geom_torsion_atom_site_label_3
_geom_torsion_atom_site_label_4
_geom_torsion
_geom_torsion_site_symmetry_1
_geom_torsion_site_symmetry_2
_geom_torsion_site_symmetry_3
_geom_torsion_site_symmetry_4
_geom_torsion_publ_flag
N1 C7 C8 C11 176.88(11) . . . . ?
N1 C7 C8 C9 1.17(14) . . . . ?
N1 C7 C5 C6 111.57(14) . . . . ?
N1 C7 C5 C3 -15.75(16) . . . . ?
N1 C10 C9 C8 -0.26(16) . . . . ?
N1 C1 C2 C3 48.89(17) . . . . ?
C7 N1 C10 C9 1.02(16) . . . . ?
C7 N1 C1 C2 -17.86(19) . . . . ?
C7 C8 C11 O1 -33.8(2) . . . . ?
C7 C8 C11 N2 145.45(13) . . . . ?
C7 C8 C9 C10 -0.57(16) . . . . ?
C7 C5 C3 C2 46.61(15) . . . . ?
C7 C5 C3 C4 173.45(12) . . . . ?
C8 C7 C5 C6 -65.74(18) . . . . ?
C8 C7 C5 C3 166.93(13) . . . . ?
C5 C7 C8 C11 -5.5(2) . . . . ?
C5 C7 C8 C9 178.78(13) . . . . ?
C5 C3 C2 C1 -65.75(15) . . . . ?
C11 N2 C14 C15 110.40(16) . . . . ?
C11 N2 C12 C13 84.12(17) . . . . ?
C11 C8 C9 C10 -175.83(14) . . . . ?
C14 N2 C11 O1 172.54(13) . . . . ?
C14 N2 C11 C8 -6.7(2) . . . . ?
C14 N2 C12 C13 -85.90(16) . . . . ?
C10 N1 C7 C8 -1.37(15) . . . . ?
C10 N1 C7 C5 -179.24(11) . . . . ?
C10 N1 C1 C2 162.78(13) . . . . ?
C6 C5 C3 C2 -78.76(15) . . . . ?
C6 C5 C3 C4 48.08(17) . . . . ?
C9 C8 C11 O1 140.80(15) . . . . ?
C9 C8 C11 N2 -40.0(2) . . . . ?
C12 N2 C11 O1 3.7(2) . . . . ?
C12 N2 C11 C8 -175.53(12) . . . . ?
C12 N2 C14 C15 -80.56(16) . . . . ?
C1 N1 C7 C8 179.19(12) . . . . ?
C1 N1 C7 C5 1.32(19) . . . . ?
C1 N1 C10 C9 -179.54(13) . . . . ?
C4 C3 C2 C1 167.42(13) . . . . ?

_shelx_res_file                  
;
TITL shelxt_a.res in P-1
    22mcd033.res
    created by SHELXL-2018/3 at 15:39:52 on 10-Jun-2023
CELL 0.71073 7.4665 8.8596 11.5128 102.537 102.308 99.663
ZERR 2 0.0004 0.0005 0.0006 0.002 0.002 0.002
LATT 1
SFAC C H N O
UNIT 30 48 4 2

L.S. 60
PLAN  4
SIZE 0.1 0.14 0.15
CONF
BOND
BOND $H
LIST 6
WPDB 2
fmap 2
acta
MORE -1
MERG 2
OMIT 0 -2 1
REM <olex2.extras>
REM <HklSrc "%.\\22MCD033.hkl">
REM </olex2.extras>

WGHT    0.044500    0.189000
FVAR       0.66567
O1    4    0.353240    0.896510    0.741065    11.00000    0.04227    0.06610 =
         0.04318    0.02137    0.01192    0.02657
N1    3    0.738646    0.801569    0.532116    11.00000    0.02911    0.03587 =
         0.03902    0.01211    0.00983    0.00559
N2    3    0.511284    0.784763    0.875614    11.00000    0.03701    0.04306 =
         0.03130    0.01089    0.00638    0.01083
C7    1    0.577269    0.797619    0.570502    11.00000    0.02807    0.02702 =
         0.03422    0.00993    0.00726    0.00667
C8    1    0.627606    0.826156    0.697902    11.00000    0.02928    0.03268 =
         0.03398    0.00894    0.00378    0.00682
C5    1    0.386925    0.761047    0.480569    11.00000    0.02964    0.03185 =
         0.03124    0.00949    0.00567    0.00916
AFIX  13
H5    2    0.320848    0.841822    0.510819    11.00000   -1.20000
AFIX   0
C11   1    0.489685    0.838669    0.772520    11.00000    0.03248    0.03531 =
         0.03007    0.00596    0.00281    0.00711
C14   1    0.651280    0.697680    0.916867    11.00000    0.04250    0.03991 =
         0.03860    0.01399    0.00436    0.01063
AFIX  23
H14A  2    0.711463    0.666011    0.851551    11.00000   -1.20000
H14B  2    0.588359    0.602022    0.932587    11.00000   -1.20000
AFIX   0
C10   1    0.890500    0.835400    0.631816    11.00000    0.02574    0.04610 =
         0.05000    0.01440    0.00585    0.00314
AFIX  43
H10   2    1.015534    0.846002    0.629226    11.00000   -1.20000
AFIX   0
C6    1    0.270393    0.599896    0.478057    11.00000    0.03404    0.04257 =
         0.04881    0.01721    0.00318    0.00102
AFIX 137
H6A   2    0.325104    0.516789    0.442037    11.00000   -1.50000
H6B   2    0.143910    0.585785    0.429944    11.00000   -1.50000
H6C   2    0.269199    0.596208    0.560618    11.00000   -1.50000
AFIX   0
C9    1    0.827581    0.850823    0.734996    11.00000    0.03085    0.04294 =
         0.04063    0.00913   -0.00145    0.00328
AFIX  43
H9    2    0.901361    0.873384    0.815360    11.00000   -1.20000
AFIX   0
C3    1    0.408851    0.777321    0.353543    11.00000    0.04245    0.04007 =
         0.03332    0.01268    0.00682    0.01128
AFIX  13
H3    2    0.454921    0.890502    0.362096    11.00000   -1.20000
AFIX   0
C12   1    0.363070    0.789342    0.940686    11.00000    0.04778    0.06115 =
         0.03611    0.01448    0.01458    0.01641
AFIX  23
H12A  2    0.316005    0.884408    0.937677    11.00000   -1.20000
H12B  2    0.415686    0.794591    1.026495    11.00000   -1.20000
AFIX   0
C1    1    0.749465    0.775364    0.404187    11.00000    0.04243    0.05414 =
         0.04438    0.01764    0.02045    0.01207
AFIX  23
H1A   2    0.839329    0.710494    0.390410    11.00000   -1.20000
H1B   2    0.792477    0.876296    0.387813    11.00000   -1.20000
AFIX   0
C15   1    0.800916    0.794215    1.032657    11.00000    0.04907    0.07017 =
         0.04003    0.01510   -0.00212    0.01419
AFIX 137
H15A  2    0.875161    0.881392    1.014647    11.00000   -1.50000
H15B  2    0.880551    0.728058    1.061097    11.00000   -1.50000
H15C  2    0.741633    0.834222    1.095425    11.00000   -1.50000
AFIX   0
C2    1    0.558553    0.693446    0.317898    11.00000    0.05036    0.05141 =
         0.03534    0.01129    0.01507    0.01494
AFIX  23
H2A   2    0.528013    0.583943    0.321320    11.00000   -1.20000
H2B   2    0.561217    0.693799    0.234088    11.00000   -1.20000
AFIX   0
C13   1    0.201620    0.645359    0.885205    11.00000    0.04700    0.07135 =
         0.06755    0.02523    0.02020    0.00882
AFIX 137
H13A  2    0.143323    0.643957    0.802045    11.00000   -1.50000
H13B  2    0.110801    0.649952    0.932919    11.00000   -1.50000
H13C  2    0.248318    0.550831    0.885455    11.00000   -1.50000
AFIX   0
C4    1    0.223015    0.723740    0.254933    11.00000    0.05266    0.08069 =
         0.03464    0.01784    0.00288    0.01987
AFIX 137
H4A   2    0.179387    0.610951    0.237940    11.00000   -1.50000
H4B   2    0.240662    0.750611    0.181102    11.00000   -1.50000
H4C   2    0.131688    0.775834    0.283509    11.00000   -1.50000
AFIX   0
HKLF 4




REM  shelxt_a.res in P-1
REM wR2 = 0.1172, GooF = S = 1.028, Restrained GooF = 1.028 for all data
REM R1 = 0.0467 for 2615 Fo > 4sig(Fo) and 0.0688 for all 3495 data
REM 167 parameters refined using 0 restraints

END

WGHT      0.0439      0.1887

REM Highest difference peak  0.195,  deepest hole -0.156,  1-sigma level  0.033
Q1    1   0.4321  0.6847  0.3449  11.00000  0.05    0.19
Q2    1   0.5901  0.8298  0.6363  11.00000  0.05    0.19
Q3    1   0.7129  0.8332  0.7216  11.00000  0.05    0.17
Q4    1   0.4789  0.7755  0.5288  11.00000  0.05    0.17
;
_shelx_res_checksum              39504
_shelx_hkl_file                  
;
  -2   0   0  372.26    6.39
  -2   0   0  370.42    6.04
  -2   0   0  378.22    6.89
  -2   0   0  378.86    6.57
  -2   0   0  374.03    5.09
  -2   0   0  373.38    6.89
  -2   0   0  388.74    6.04
   2   0   0  380.29    6.57
   2   0   0  367.56    6.89
   2   0   0  364.75    6.35
   2   0   0  373.04    5.92
   2   0   0  373.94    6.96
  -3   0   0   45.19    2.20
  -3   0   0   47.34    1.96
  -3   0   0   47.96    1.69
  -3   0   0   47.09    2.26
  -3   0   0   48.62    1.74
   3   0   0   46.17    1.57
   3   0   0   45.96    2.04
   3   0   0   47.77    2.35
   3   0   0   46.85    1.92
  -4   0   0    5.56    1.27
  -4   0   0    9.82    0.95
  -4   0   0   10.48    0.93
  -4   0   0    7.86    1.16
  -4   0   0    8.16    0.74
   4   0   0    9.84    1.55
   4   0   0    7.24    1.09
   4   0   0   10.09    1.59
   4   0   0    8.70    1.08
   4   0   0    8.67    0.79
   4   0   0    8.86    1.35
  -5   0   0   23.85    1.81
  -5   0   0   25.26    1.55
  -5   0   0   22.79    1.60
  -5   0   0   25.29    1.31
   5   0   0   26.24    2.28
   5   0   0   23.12    1.37
   5   0   0   21.43    2.03
   5   0   0   25.88    1.97
   5   0   0   23.33    1.39
   5   0   0   22.75    2.12
  -6   0   0    2.43    0.66
  -6   0   0    2.61    0.97
  -6   0   0    2.38    0.79
  -6   0   0    2.42    1.06
   6   0   0    2.46    1.31
   6   0   0    2.63    1.05
   6   0   0    2.10    0.99
  -7   0   0   14.55    1.85
  -7   0   0   16.55    1.63
  -7   0   0   17.03    1.33
  -7   0   0   17.26    2.31
   7   0   0   15.17    2.25
   7   0   0   15.92    2.76
   7   0   0   15.80    2.67
  -8   0   0   15.30    2.44
  -8   0   0   22.86    2.00
  -8   0   0   19.46    1.97
  -8   0   0   18.61    1.47
   8   0   0   19.45    2.72
   8   0   0   16.77    3.04
   8   0   0   22.07    3.40
  -9   0   0    3.12    1.38
  -9   0   0    3.40    1.08
   9   0   0    1.81    1.54
   9   0   0    2.00    1.37
   9   0   0    5.31    2.06
   9  -1   0   -0.04    1.12
   9  -1   0    0.27    1.13
   9  -1   0    2.51    1.40
  -9   1   0   -1.19    0.77
  -9   1   0    0.66    0.96
   8  -1   0    3.87    1.85
   8  -1   0    2.83    1.05
   8  -1   0    4.09    1.29
   8  -1   0    4.55    1.68
  -8   1   0    3.54    1.21
  -8   1   0    3.89    1.14
  -8   1   0    4.08    1.13
  -8   1   0    2.62    0.68
   7  -1   0    4.39    1.51
   7  -1   0    3.10    1.26
   7  -1   0    3.32    1.56
  -7   1   0    6.22    1.27
  -7   1   0    4.39    0.78
  -7   1   0    5.72    1.39
  -7   1   0    6.68    1.46
   6  -1   0   11.56    2.16
   6  -1   0    9.39    1.60
   6  -1   0    8.69    1.88
  -6   1   0   10.20    0.88
  -6   1   0   10.72    1.57
  -6   1   0   10.31    1.52
  -6   1   0   14.24    1.92
   5  -1   0   20.71    1.69
   5  -1   0   22.05    2.10
   5  -1   0   23.11    2.17
   5  -1   0   21.74    1.48
   5  -1   0   20.30    1.77
  -5   1   0   23.14    1.58
  -5   1   0   21.41    1.63
  -5   1   0   23.00    2.11
   4  -1   0   93.95    2.94
   4  -1   0   91.92    2.91
   4  -1   0   98.61    3.88
   4  -1   0   92.91    3.20
   4  -1   0   97.09    3.45
  -4   1   0   92.03    3.23
  -4   1   0   94.51    3.14
  -4   1   0   98.51    3.81
  -4   1   0   96.44    3.03
   3  -1   0    3.17    0.69
   3  -1   0    3.29    0.19
   3  -1   0    4.77    0.73
   3  -1   0    2.78    0.81
   3  -1   0    2.25    0.76
  -3   1   0    3.78    0.75
  -3   1   0    2.85    0.80
  -3   1   0    3.09    0.69
  -3   1   0    3.38    0.71
  -3   1   0    4.55    0.91
   2  -1   0  261.90    4.98
   2  -1   0  271.93    5.47
   2  -1   0  279.11    5.02
   2  -1   0  271.26    5.24
   2  -1   0  274.39    4.97
  -2   1   0  277.45    5.43
  -2   1   0  273.29    5.08
  -2   1   0  268.31    5.03
  -2   1   0  265.99    5.13
   1  -1   0    3.30    0.47
   1  -1   0    3.30    0.46
   1  -1   0    4.57    0.43
  -1   1   0    3.79    0.48
  -1   1   0    4.15    0.48
  -1   1   0    3.72    0.49
  -1   1   0    3.96    0.44
  -1   1   0    3.72    0.37
   0  -1   0  285.29    4.50
  -1  -1   0  276.06    4.81
  -1  -1   0  260.40    4.51
  -1  -1   0  260.72    4.83
  -1  -1   0  271.71    4.86
  -1  -1   0  268.10    4.59
   1   1   0  265.12    4.52
   1   1   0  276.03    4.93
   1   1   0  269.56    4.58
   1   1   0  272.79    4.83
   1   1   0  265.49    4.91
  -2  -1   0    7.48    0.45
  -2  -1   0    8.49    0.80
  -2  -1   0    7.61    0.68
  -2  -1   0    8.55    0.55
  -2  -1   0    7.88    0.98
  -2  -1   0    6.98    0.43
  -2  -1   0    7.70    0.71
  -2  -1   0    8.01    0.66
  -2  -1   0    9.31    1.17
   2   1   0    9.41    1.32
   2   1   0    7.63    0.32
   2   1   0    9.30    1.18
   2   1   0    8.55    0.83
  -3  -1   0    1.50    0.57
  -3  -1   0    0.65    0.29
  -3  -1   0    1.53    0.47
  -3  -1   0    1.17    0.75
  -3  -1   0    0.56    0.31
  -3  -1   0    0.81    0.35
  -3  -1   0    0.59    0.43
  -3  -1   0    0.53    0.49
  -3  -1   0    0.40    0.49
   3   1   0    1.05    0.31
   3   1   0    1.32    0.59
   3   1   0    1.44    0.83
   3   1   0    0.98    0.27
   3   1   0    0.16    0.52
  -4  -1   0    4.55    0.74
  -4  -1   0    5.70    0.75
  -4  -1   0    5.22    0.74
  -4  -1   0    7.30    1.31
  -4  -1   0    5.16    0.94
  -4  -1   0    5.10    0.99
  -4  -1   0    4.83    0.45
  -4  -1   0    6.76    1.14
   4   1   0    5.60    1.29
   4   1   0    3.52    0.98
   4   1   0    4.58    0.55
   4   1   0    5.62    0.56
  -5  -1   0   13.54    1.67
  -5  -1   0   13.96    1.71
  -5  -1   0   14.30    0.51
  -5  -1   0   14.39    0.52
  -5  -1   0   14.89    1.18
  -5  -1   0   13.34    1.13
  -5  -1   0   15.12    1.11
   5   1   0   14.37    0.88
   5   1   0   13.75    0.87
   5   1   0   13.55    1.83
   5   1   0   15.51    2.28
   5   1   0   13.66    2.40
  -6  -1   0   45.60    2.28
  -6  -1   0   41.32    2.09
  -6  -1   0   42.82    2.70
  -6  -1   0   42.13    2.10
   6   1   0   44.70    3.48
   6   1   0   43.30    1.57
  -7  -1   0    6.85    1.54
  -7  -1   0    2.94    0.81
  -7  -1   0    3.14    0.91
  -7  -1   0    3.61    0.91
   7   1   0    4.38    1.37
   7   1   0    3.51    0.57
   7   1   0    3.07    1.43
   7   1   0    3.79    1.61
  -8  -1   0    1.49    1.05
  -8  -1   0    1.34    0.78
  -8  -1   0    3.21    0.79
   8   1   0    3.59    1.96
   8   1   0    3.88    1.35
   8   1   0    3.29    1.81
  -9  -1   0    0.89    0.72
  -9  -1   0    2.89    1.35
   9   1   0    2.14    1.85
   9   1   0    1.13    1.31
   9   1   0    2.09    1.81
   9  -2   0   -0.01    1.04
   9  -2   0   -1.30    1.09
   9  -2   0    0.11    0.89
  -9   2   0    0.96    0.93
  -9   2   0    0.02    0.88
   8  -2   0   -1.04    1.04
   8  -2   0   -0.13    0.87
   8  -2   0    1.95    1.32
   8  -2   0    0.81    0.87
  -8   2   0    0.15    0.76
  -8   2   0    0.24    0.45
  -8   2   0    1.00    0.96
  -8   2   0    2.72    1.15
   7  -2   0    1.24    0.95
   7  -2   0    0.58    0.70
   7  -2   0    0.11    1.17
   7  -2   0    1.50    1.11
  -7   2   0    1.75    0.91
  -7   2   0    0.97    0.94
   6  -2   0    7.03    1.73
   6  -2   0    5.86    1.43
   6  -2   0    7.15    1.77
   6  -2   0    8.58    1.83
  -6   2   0    8.97    1.49
  -6   2   0    5.36    1.28
  -6   2   0    7.14    1.43
   5  -2   0    0.74    0.62
   5  -2   0    0.72    0.58
   5  -2   0    2.62    0.99
  -5   2   0    1.89    0.66
  -5   2   0    1.08    0.59
  -5   2   0    0.23    0.47
   4  -2   0   39.81    1.15
   4  -2   0   40.26    2.38
   4  -2   0   38.51    1.98
   4  -2   0   44.01    2.40
   4  -2   0   41.44    2.52
  -4   2   0   43.63    2.23
  -4   2   0   41.23    2.20
  -4   2   0   42.06    2.08
   3  -2   0   51.92    2.19
   3  -2   0   55.05    2.54
   3  -2   0   49.15    2.09
   3  -2   0   52.29    2.14
   3  -2   0   48.93    2.40
  -3   2   0   56.07    2.18
  -3   2   0   49.42    2.13
  -3   2   0   51.57    2.22
   2  -2   0  932.03   14.11
  -1  -2   0    9.43    0.75
  -1  -2   0    9.60    0.71
  -1  -2   0    9.40    0.35
  -1  -2   0   10.07    0.84
  -1  -2   0    9.42    0.86
  -1  -2   0    9.52    0.36
  -1  -2   0    9.01    0.76
   1   2   0    9.10    0.81
   1   2   0    9.05    0.89
   1   2   0    9.51    0.76
   1   2   0    9.55    0.91
   1   2   0    9.30    0.84
  -2  -2   0  439.33    7.76
  -2  -2   0  437.19    8.14
  -2  -2   0  446.07    7.89
  -2  -2   0  443.78    8.34
  -2  -2   0  430.47    8.25
   2   2   0  427.20    8.41
   2   2   0  429.30    7.74
   2   2   0  437.32    8.52
   2   2   0  432.87    7.70
   2   2   0  432.02    8.25
  -3  -2   0  234.46    5.19
  -3  -2   0  227.11    4.95
  -3  -2   0  225.06    3.75
  -3  -2   0  223.40    5.84
  -3  -2   0  232.07    5.11
  -3  -2   0  239.64    5.68
  -3  -2   0  223.72    3.79
  -3  -2   0  230.50    5.35
   3   2   0  233.94    5.77
   3   2   0  225.67    6.11
  -4  -2   0   27.13    1.12
  -4  -2   0   26.50    1.71
  -4  -2   0   23.98    1.95
  -4  -2   0   25.94    1.85
  -4  -2   0   24.29    1.12
  -4  -2   0   27.12    1.64
   4   2   0   23.98    1.86
   4   2   0   24.53    2.16
   4   2   0   23.66    2.13
  -5  -2   0   67.64    2.14
  -5  -2   0   61.27    2.63
  -5  -2   0   62.51    3.16
  -5  -2   0   62.33    2.11
  -5  -2   0   63.48    3.50
  -5  -2   0   64.56    2.22
   5   2   0   65.38    3.87
   5   2   0   56.49    3.61
   5   2   0   70.05    3.47
  -6  -2   0   15.64    1.98
  -6  -2   0   13.92    1.42
  -6  -2   0   10.83    1.11
  -6  -2   0   11.50    1.06
   6   2   0   10.68    2.29
   6   2   0   10.71    1.93
  -7  -2   0   17.07    1.47
  -7  -2   0   18.31    2.02
  -7  -2   0   25.17    2.19
   7   2   0   20.31    3.24
   7   2   0   17.99    2.61
   7   2   0   15.46    2.91
  -8  -2   0   19.51    1.68
  -8  -2   0   17.91    1.58
  -8  -2   0   23.89    2.43
   8   2   0   18.38    3.75
   8   2   0   20.34    2.88
   8   2   0   16.65    3.28
   9  -3   0    2.79    1.30
   9  -3   0    1.42    1.29
   9  -3   0    0.02    1.20
  -9   3   0    0.93    1.16
  -9   3   0    2.08    1.11
   8  -3   0    6.85    2.09
   8  -3   0    5.68    1.61
   8  -3   0    9.02    2.20
  -8   3   0    6.52    1.63
  -8   3   0    6.06    1.56
  -8   3   0    7.19    2.14
  -8   3   0    6.64    0.92
   7  -3   0    1.00    1.07
   7  -3   0   -0.29    0.73
   7  -3   0   -0.44    0.86
   7  -3   0    0.59    0.88
  -7   3   0    0.46    0.41
  -7   3   0    0.95    0.59
  -7   3   0    0.28    0.69
  -7   3   0   -1.36    0.73
   6  -3   0   10.10    2.02
   6  -3   0    8.51    0.40
   6  -3   0   10.04    1.66
   6  -3   0    9.18    1.75
  -6   3   0    8.52    1.64
  -6   3   0    9.13    0.93
  -6   3   0   10.53    1.83
  -6   3   0    8.83    1.53
   5  -3   0    2.12    1.09
   5  -3   0    4.54    0.59
   5  -3   0    3.51    0.95
  -5   3   0    3.54    1.02
  -5   3   0    5.50    0.81
  -5   3   0    4.28    1.05
   4  -3   0    0.90    0.72
   4  -3   0    0.47    0.61
   4  -3   0    1.58    0.62
   4  -3   0    1.37    0.56
  -4   3   0    1.19    0.60
  -4   3   0    1.16    0.52
  -4   3   0    0.19    0.59
  -4   3   0    0.85    0.61
  -4   3   0    0.64    0.52
  -4   3   0    0.90    0.59
   3  -3   0  109.10    3.50
   3  -3   0  117.77    3.61
   3  -3   0  117.47    3.21
   3  -3   0  119.35    3.48
  -3   3   0  114.69    3.67
  -3   3   0  116.20    3.09
  -3   3   0  112.75    3.05
  -3   3   0  117.37    3.58
  -3   3   0  119.47    3.61
  -3   3   0  112.81    3.46
   2  -3   0    0.01    0.36
   2  -3   0    0.43    0.31
   2  -3   0    0.20    0.31
   2  -3   0    0.42    0.39
   2  -3   0   -0.26    0.23
  -2   3   0   -0.58    0.34
  -2   3   0   -0.26    0.32
  -2   3   0   -0.18    0.27
  -2   3   0    0.46    0.47
  -2   3   0    0.14    0.36
  -2   3   0    0.30    0.29
   1  -3   0   20.10    1.18
   1  -3   0   19.67    1.15
   1  -3   0   22.48    0.97
   1  -3   0   20.63    1.23
   1  -3   0   19.43    1.10
  -1   3   0   21.40    0.98
  -1   3   0   20.89    1.21
  -1   3   0   21.73    1.16
  -1   3   0   20.83    1.35
  -1   3   0   20.23    1.25
   0  -3   0  975.54   14.55
   0  -3   0 1000.00   15.27
   0  -3   0  974.93   15.19
  -1  -3   0  507.42    9.39
  -1  -3   0  506.88    8.65
  -1  -3   0  516.56    9.21
  -1  -3   0  510.41    7.47
  -1  -3   0  497.15    8.93
  -1  -3   0  501.32    8.21
  -1  -3   0  497.10    8.97
  -1  -3   0  492.36    7.41
   1   3   0  510.05    8.81
   1   3   0  487.20    8.84
   1   3   0  506.15    9.05
  -2  -3   0   19.93    1.52
  -2  -3   0   23.56    1.49
  -2  -3   0   22.92    1.48
  -2  -3   0   18.12    1.51
  -2  -3   0   22.98    1.66
  -2  -3   0   19.36    1.44
  -2  -3   0   21.59    0.51
   2   3   0   23.67    1.96
   2   3   0   21.91    1.50
   2   3   0   22.03    1.49
   2   3   0   21.30    1.74
   2   3   0   22.75    1.68
  -3  -3   0   17.47    1.32
  -3  -3   0   18.35    1.50
  -3  -3   0   19.23    1.44
  -3  -3   0   18.20    0.47
  -3  -3   0   17.97    1.63
  -3  -3   0   18.55    1.60
  -3  -3   0   20.84    1.34
  -3  -3   0   18.48    0.47
   3   3   0   17.00    1.75
   3   3   0   18.09    1.47
   3   3   0   20.74    1.72
   3   3   0   17.40    1.75
   3   3   0   16.34    1.35
  -4  -3   0   12.59    1.10
  -4  -3   0   12.30    1.27
  -4  -3   0   14.44    1.81
  -4  -3   0   12.97    0.61
  -4  -3   0   10.55    0.60
  -4  -3   0   14.40    1.81
  -4  -3   0   10.80    1.69
   4   3   0   12.47    2.06
   4   3   0   13.57    1.84
   4   3   0   13.08    1.99
  -5  -3   0   19.07    1.01
  -5  -3   0   19.98    1.30
  -5  -3   0   16.62    1.56
  -5  -3   0   18.73    1.91
  -5  -3   0   18.00    0.96
   5   3   0   21.75    2.90
   5   3   0   23.33    3.09
   5   3   0   15.93    2.49
  -6  -3   0    6.37    0.85
  -6  -3   0    7.61    0.95
  -6  -3   0    5.22    1.33
  -6  -3   0    7.47    0.93
   6   3   0    7.34    1.71
   6   3   0    8.82    2.43
   6   3   0    7.83    2.16
  -7  -3   0    1.38    0.52
  -7  -3   0    0.93    0.82
  -7  -3   0    2.64    0.69
   7   3   0    2.56    1.27
   7   3   0    2.92    1.28
   7   3   0    1.20    1.22
  -8  -3   0   12.12    1.23
  -8  -3   0   13.24    2.15
  -8  -3   0   11.40    1.31
   8   3   0    9.37    2.14
   8   3   0   10.20    2.51
   8   3   0   14.32    3.06
   9  -4   0   -1.01    1.36
   9  -4   0   -0.30    1.58
   9  -4   0   -0.41    0.76
   9  -4   0   -0.07    0.89
  -9   4   0   -1.48    0.83
  -9   4   0    0.73    1.00
   8  -4   0    1.56    1.08
   8  -4   0    2.37    1.07
   8  -4   0    2.65    1.27
   8  -4   0    3.34    1.30
  -8   4   0    2.15    0.62
  -8   4   0    3.84    1.48
  -8   4   0    1.56    1.14
  -8   4   0    2.34    1.17
   7  -4   0    6.65    1.42
   7  -4   0    6.33    1.69
   7  -4   0    6.02    0.41
   7  -4   0    5.97    1.88
  -7   4   0    8.70    1.78
  -7   4   0    5.22    0.93
  -7   4   0    5.58    1.56
  -7   4   0    5.74    1.36
   6  -4   0   46.03    3.04
   6  -4   0   45.65    2.44
   6  -4   0   42.50    3.23
   6  -4   0   44.54    2.79
   6  -4   0   44.38    1.60
  -6   4   0   42.52    2.87
  -6   4   0   40.64    3.16
  -6   4   0   44.51    2.07
  -6   4   0   42.56    2.83
   5  -4   0    5.18    0.82
   5  -4   0    3.71    1.23
   5  -4   0    4.45    1.18
  -5   4   0    3.63    0.97
  -5   4   0    4.29    1.17
  -5   4   0    2.49    0.95
  -5   4   0    5.50    0.92
   4  -4   0   33.28    1.99
   4  -4   0   34.21    2.38
   4  -4   0   34.32    2.12
   4  -4   0   31.83    2.07
   4  -4   0   34.20    1.88
  -4   4   0   31.48    1.71
  -4   4   0   31.75    2.06
  -4   4   0   32.47    1.73
  -4   4   0   33.56    2.23
  -4   4   0   30.07    2.05
  -4   4   0   31.08    1.98
   3  -4   0   44.22    2.31
   3  -4   0   41.59    1.63
   3  -4   0   38.11    2.17
   3  -4   0   43.95    2.14
  -3   4   0   42.20    1.63
  -3   4   0   46.23    2.72
  -3   4   0   41.43    2.03
  -3   4   0   45.94    2.27
  -3   4   0   45.88    2.31
  -3   4   0   44.75    2.07
   2  -4   0   25.01    1.66
   2  -4   0   28.63    1.65
   2  -4   0   24.77    1.53
   2  -4   0   30.91    1.80
  -2   4   0   24.23    1.59
  -2   4   0   24.79    1.51
  -2   4   0   25.11    1.59
  -2   4   0   24.35    1.60
  -2   4   0   25.32    1.39
   1  -4   0  323.18    6.40
   1  -4   0  340.77    6.95
   1  -4   0  343.10    6.60
   1  -4   0  336.10    6.60
  -1   4   0  331.60    5.82
  -1   4   0  324.75    7.08
  -1   4   0  338.97    6.59
  -1   4   0  339.40    6.47
  -1   4   0  345.03    6.64
  -1   4   0  331.30    6.96
   0  -4   0    0.66    0.34
   0  -4   0    0.74    0.56
   0  -4   0    0.47    0.39
   0  -4   0   -0.18    0.35
   0  -4   0    0.26    0.34
   0  -4   0    0.73    0.35
   0  -4   0    0.08    0.51
   0   4   0    0.28    0.60
   0   4   0    1.41    0.55
   0   4   0    0.19    0.34
   0   4   0    0.32    0.32
   0   4   0    0.45    0.44
  -1  -4   0    1.56    0.60
  -1  -4   0    2.61    0.71
  -1  -4   0    0.64    0.55
  -1  -4   0    1.98    0.44
  -1  -4   0    1.83    0.66
  -1  -4   0    0.24    0.50
  -1  -4   0    1.89    0.41
  -1  -4   0    1.06    0.50
   1   4   0    1.37    0.25
   1   4   0    2.27    0.80
   1   4   0    1.98    0.77
   1   4   0    2.24    0.65
  -2  -4   0   75.11    3.23
  -2  -4   0   78.23    2.74
  -2  -4   0   73.60    3.24
  -2  -4   0   74.91    3.02
  -2  -4   0   77.78    3.50
  -2  -4   0   73.46    1.70
   2   4   0   75.05    3.01
   2   4   0   73.73    3.14
   2   4   0   70.46    2.99
  -3  -4   0    3.87    1.11
  -3  -4   0    4.25    0.96
  -3  -4   0    3.64    0.91
  -3  -4   0    3.57    0.86
  -3  -4   0    3.37    0.85
  -3  -4   0    4.13    0.99
  -3  -4   0    1.90    0.75
   3   4   0    2.17    0.99
   3   4   0    2.48    0.81
   3   4   0    3.31    1.17
  -4  -4   0    3.58    0.83
  -4  -4   0    2.31    0.91
  -4  -4   0    2.12    0.82
  -4  -4   0    2.27    0.93
   4   4   0    2.63    1.29
   4   4   0    1.54    0.88
  -5  -4   0   12.42    1.99
  -5  -4   0   14.80    1.38
  -5  -4   0   16.55    1.57
   5   4   0   14.36    2.43
   5   4   0   14.63    3.07
   5   4   0   14.76    2.25
  -6  -4   0    4.64    0.39
  -6  -4   0    3.17    1.35
  -6  -4   0    4.85    1.32
  -6  -4   0    4.91    0.94
   6   4   0    4.41    1.82
   6   4   0    5.12    1.75
   6   4   0    4.63    1.24
  -7  -4   0    2.13    0.41
  -7  -4   0    2.16    0.42
  -7  -4   0    2.37    1.02
  -7  -4   0    0.06    1.08
  -7  -4   0    1.32    0.77
  -7  -4   0    2.43    0.63
   7   4   0    1.31    1.05
   7   4   0    2.79    1.46
   7   4   0    3.51    1.75
  -8  -4   0    0.26    1.10
  -8  -4   0    0.97    1.22
   8   4   0    1.33    1.49
   8   4   0    1.53    1.25
   8   4   0   -1.78    1.55
   9  -5   0    6.09    2.13
   9  -5   0    8.08    2.01
   9  -5   0   10.19    2.17
   9  -5   0    8.88    2.33
  -9   5   0    9.69    2.15
  -9   5   0    7.97    2.00
  -9   5   0    7.41    1.02
   8  -5   0   -0.10    1.01
   8  -5   0    2.46    1.24
   8  -5   0    1.48    1.46
   8  -5   0    2.58    1.50
  -8   5   0    2.30    0.74
  -8   5   0    1.88    1.45
  -8   5   0    2.84    1.30
   7  -5   0   23.84    1.25
   7  -5   0   25.77    2.65
   7  -5   0   23.58    2.40
   7  -5   0   22.86    2.86
   7  -5   0   22.27    1.32
  -7   5   0   25.41    2.47
  -7   5   0   20.98    1.63
  -7   5   0   25.77    2.60
   6  -5   0   51.94    3.64
   6  -5   0   50.46    3.11
   6  -5   0   51.51    2.97
   6  -5   0   56.47    2.30
  -6   5   0   52.79    3.40
  -6   5   0   49.49    2.44
  -6   5   0   57.33    3.44
   5  -5   0   18.23    1.55
   5  -5   0   17.65    1.43
   5  -5   0   16.01    2.23
  -5   5   0   16.98    2.18
  -5   5   0   16.46    1.66
  -5   5   0   15.90    2.09
  -5   5   0   18.42    2.39
  -5   5   0   17.95    1.49
   4  -5   0   43.68    2.53
   4  -5   0   42.98    2.60
   4  -5   0   42.27    1.90
  -4   5   0   44.56    2.55
  -4   5   0   45.75    2.75
  -4   5   0   43.80    2.59
  -4   5   0   43.07    2.25
  -4   5   0   43.02    1.86
   3  -5   0  128.95    4.07
   3  -5   0  134.06    4.40
   3  -5   0  132.21    4.07
   3  -5   0  136.67    4.44
  -3   5   0  136.56    4.36
  -3   5   0  137.92    4.37
  -3   5   0  139.03    4.25
  -3   5   0  132.29    3.90
  -3   5   0  132.31    4.47
   2  -5   0    3.98    0.89
   2  -5   0    3.92    0.91
   2  -5   0    3.26    0.93
   2  -5   0    2.80    0.82
  -2   5   0    3.45    0.94
  -2   5   0    5.35    1.14
  -2   5   0    3.92    0.74
  -2   5   0    2.99    0.86
  -2   5   0    3.23    0.84
  -2   5   0    3.73    0.93
   1  -5   0  120.46    3.61
   1  -5   0  121.07    3.65
   1  -5   0  122.00    2.88
   1  -5   0  120.45    3.54
  -1   5   0  123.22    3.77
  -1   5   0  125.74    3.31
  -1   5   0  122.73    3.62
  -1   5   0  118.01    4.04
  -1   5   0  123.99    3.94
  -1   5   0  118.18    4.11
   0  -5   0  210.52    6.26
   0  -5   0  204.68    4.64
   0  -5   0  200.90    4.07
   0  -5   0  197.48    5.51
   0  -5   0  203.88    4.11
   0  -5   0  201.65    4.85
   0  -5   0  208.53    4.68
   0   5   0  200.80    4.36
   0   5   0  201.26    5.56
   0   5   0  204.49    4.05
   0   5   0  207.07    4.48
   0   5   0  199.86    5.61
  -1  -5   0    0.80    0.55
  -1  -5   0    1.61    0.68
  -1  -5   0    1.18    0.55
  -1  -5   0    1.99    0.60
  -1  -5   0    0.60    0.63
  -1  -5   0    0.99    0.31
  -1  -5   0    0.38    0.53
  -1  -5   0    0.86    0.53
  -1  -5   0    0.27    0.34
   1   5   0    1.41    0.69
   1   5   0    0.85    0.26
   1   5   0    0.83    0.64
   1   5   0    1.10    0.69
   1   5   0    0.93    0.28
  -2  -5   0   12.21    1.64
  -2  -5   0   11.13    1.13
  -2  -5   0   14.13    1.93
   2   5   0   11.41    1.79
   2   5   0   14.03    1.78
  -3  -5   0    4.55    1.04
  -3  -5   0    5.59    1.18
  -3  -5   0    5.19    1.25
   3   5   0    4.12    1.13
   3   5   0    5.48    1.31
   3   5   0    5.38    1.45
  -4  -5   0    6.65    1.55
  -4  -5   0    9.06    1.62
   4   5   0   11.12    2.12
   4   5   0    5.27    1.30
   4   5   0    7.12    1.63
   4   5   0    7.04    1.80
   4   5   0    7.93    1.54
  -5  -5   0    6.14    1.60
  -5  -5   0    6.80    1.27
  -5  -5   0    7.28    1.36
   5   5   0    5.42    1.54
   5   5   0    6.23    1.93
   5   5   0    7.63    2.02
  -6  -5   0    2.02    1.21
  -6  -5   0    6.77    1.29
   6   5   0    3.88    1.69
   6   5   0    4.87    1.74
   6   5   0    2.51    1.07
  -7  -5   0    0.69    1.23
  -7  -5   0   -1.19    0.79
   7   5   0   -1.10    1.21
   7   5   0    2.17    1.70
   9  -6   0    1.65    1.59
   9  -6   0    1.90    1.55
   9  -6   0   -0.16    1.40
   9  -6   0    2.18    1.32
  -9   6   0    0.76    1.23
  -9   6   0   -1.24    1.10
  -9   6   0    2.10    0.85
   8  -6   0    5.55    1.86
   8  -6   0    3.84    1.56
   8  -6   0    2.27    0.69
   8  -6   0    2.81    0.81
  -8   6   0    6.14    1.58
  -8   6   0    2.89    1.21
  -8   6   0    3.55    0.97
   7  -6   0    1.24    0.73
   7  -6   0    1.76    0.92
   7  -6   0    2.35    1.24
   7  -6   0    0.13    1.11
  -7   6   0    1.26    1.13
  -7   6   0    2.18    0.80
  -7   6   0    3.41    1.42
   6  -6   0    2.13    1.35
   6  -6   0    3.40    1.43
   6  -6   0    3.44    0.95
   6  -6   0    2.75    1.08
  -6   6   0    3.43    1.49
  -6   6   0    2.73    1.30
  -6   6   0    1.58    0.86
   5  -6   0    8.56    1.28
   5  -6   0    7.54    1.36
   5  -6   0    9.47    1.84
  -5   6   0    5.17    1.27
  -5   6   0    6.98    1.20
  -5   6   0    6.48    1.82
   4  -6   0    0.93    0.69
  -4   6   0    1.09    0.68
  -4   6   0   -0.41    0.72
  -4   6   0   -0.14    0.62
  -4   6   0   -0.16    0.70
   3  -6   0  110.76    4.79
   3  -6   0  100.24    3.82
   3  -6   0  112.60    4.15
   3  -6   0  103.06    3.81
  -3   6   0  101.93    3.95
  -3   6   0  102.22    3.43
  -3   6   0  107.08    4.47
  -3   6   0  107.02    4.17
   2  -6   0    8.41    1.26
   2  -6   0    9.63    1.46
   2  -6   0   10.32    1.48
   2  -6   0    9.77    1.41
  -2   6   0    8.86    1.40
  -2   6   0   10.19    1.71
  -2   6   0   10.29    1.47
  -2   6   0    9.28    1.12
  -2   6   0    8.57    1.52
   1  -6   0    7.68    1.15
   1  -6   0    6.63    1.08
   1  -6   0    7.38    0.72
   1  -6   0    7.81    1.16
  -1   6   0    6.13    1.45
  -1   6   0    8.29    1.29
  -1   6   0    7.22    1.09
  -1   6   0    7.72    0.99
   0  -6   0   17.40    1.33
  -1  -6   0    1.49    0.53
  -1  -6   0    1.50    0.63
  -1  -6   0   -0.43    0.46
  -1  -6   0    0.59    0.73
  -1  -6   0    0.04    0.40
   1   6   0    0.73    0.34
   1   6   0    0.56    0.55
   1   6   0    1.44    0.86
   1   6   0    0.61    0.30
  -2  -6   0    1.68    1.17
  -2  -6   0    2.69    0.59
  -2  -6   0    1.83    0.79
  -2  -6   0    2.26    0.79
  -2  -6   0    3.23    0.54
  -2  -6   0    1.29    0.59
   2   6   0    0.32    0.67
   2   6   0    2.21    0.94
   2   6   0    2.44    0.99
  -3  -6   0    0.50    0.59
  -3  -6   0   -0.40    0.48
  -3  -6   0   -0.07    0.17
   3   6   0    0.50    0.78
   3   6   0    0.37    1.11
  -4  -6   0    2.80    1.05
  -4  -6   0    1.86    0.87
  -4  -6   0    0.25    0.66
   4   6   0    1.61    0.92
   4   6   0    0.38    1.15
   4   6   0    1.02    0.83
  -5  -6   0   16.41    2.41
  -5  -6   0   12.57    1.86
  -5  -6   0   16.72    2.06
   5   6   0   19.38    3.22
  -6  -6   0    6.55    1.80
  -6  -6   0    6.93    1.56
  -6  -6   0    5.92    1.43
   6   6   0    9.41    2.72
   8  -7   0   -0.98    1.11
   8  -7   0   -0.06    1.33
   8  -7   0    0.86    0.77
  -8   7   0    1.39    1.00
  -8   7   0   -0.34    0.75
  -8   7   0    3.01    1.51
   7  -7   0    5.71    1.76
  -7   7   0    6.17    1.85
  -7   7   0    9.81    1.60
  -7   7   0    7.73    1.84
   6  -7   0   22.76    2.33
   6  -7   0   21.00    1.93
   6  -7   0   26.49    2.67
  -6   7   0   20.96    2.81
  -6   7   0   21.30    1.90
  -6   7   0   27.89    2.75
   5  -7   0   21.31    2.30
   5  -7   0   20.05    1.86
  -5   7   0   18.12    1.74
  -5   7   0   20.23    2.55
   4  -7   0    2.76    1.09
  -4   7   0    4.42    1.37
  -4   7   0    0.82    0.88
  -4   7   0    1.56    0.85
  -4   7   0    0.87    0.81
  -4   7   0   -0.14    0.58
   3  -7   0    7.33    1.40
   3  -7   0    9.21    1.64
  -3   7   0    7.38    1.49
  -3   7   0    7.17    1.20
  -3   7   0    8.78    1.76
  -3   7   0    8.72    1.66
  -3   7   0    7.57    1.52
   2  -7   0   34.26    2.24
   2  -7   0   32.27    2.22
  -2   7   0   31.40    1.64
  -2   7   0   31.55    2.57
  -2   7   0   27.87    2.09
  -2   7   0   32.82    2.48
   1  -7   0  169.98    5.01
   1  -7   0  170.12    3.73
   1  -7   0  164.21    4.88
   1  -7   0  171.41    5.04
  -1   7   0  177.60    5.97
  -1   7   0  165.45    3.78
  -1   7   0  175.96    6.00
   0  -7   0   21.03    1.62
   0  -7   0   19.87    1.20
   0  -7   0   22.26    1.72
   0  -7   0   19.96    1.99
   0  -7   0   23.86    1.21
   0   7   0   29.54    2.41
   0   7   0   22.99    2.09
   0   7   0   23.14    1.47
  -1  -7   0   15.61    1.40
  -1  -7   0   16.09    1.85
  -1  -7   0   18.60    1.34
  -1  -7   0   18.80    1.98
  -1  -7   0   17.96    1.24
   1   7   0   17.51    2.70
   1   7   0   17.37    2.44
   1   7   0   17.33    0.77
   1   7   0   15.57    1.03
  -2  -7   0   22.04    1.88
  -2  -7   0   23.06    1.29
  -2  -7   0   26.51    2.32
  -2  -7   0   22.94    1.27
  -2  -7   0   22.77    1.64
   2   7   0   23.64    2.20
   2   7   0   25.20    2.40
  -3  -7   0    8.82    0.58
  -3  -7   0    6.44    1.21
  -3  -7   0    8.58    0.57
  -3  -7   0    6.68    1.51
   3   7   0    9.60    1.95
   3   7   0    8.10    1.70
   3   7   0   11.24    2.35
  -4  -7   0    1.49    0.85
  -4  -7   0    0.74    0.74
  -4  -7   0    0.96    1.03
   4   7   0   -0.16    0.83
   4   7   0    1.21    1.03
  -5  -7   0    1.06    1.08
  -5  -7   0    3.94    1.00
  -5  -7   0    2.93    1.18
   5   7   0    1.81    1.57
  -6  -7   0    1.60    1.17
  -6  -7   0    4.47    1.28
  -6  -7   0    2.94    1.11
   6   7   0   -0.71    1.39
   8  -8   0   -0.57    0.98
   8  -8   0   -1.99    0.90
   8  -8   0   -1.59    1.12
  -8   8   0   -1.62    1.08
  -8   8   0    2.05    1.11
  -8   8   0    1.12    1.58
   7  -8   0    0.83    1.13
   7  -8   0    0.46    1.13
   7  -8   0    0.98    0.90
  -7   8   0    0.81    0.91
  -7   8   0    1.45    1.36
  -7   8   0    2.02    1.41
   6  -8   0   16.79    2.70
   6  -8   0   19.74    2.84
   6  -8   0   15.91    2.17
  -6   8   0   15.55    2.61
  -6   8   0   13.66    2.04
   5  -8   0   34.88    2.84
   5  -8   0   31.85    2.52
  -5   8   0   34.13    3.07
  -5   8   0   34.52    3.48
  -5   8   0   32.14    2.54
  -5   8   0   37.48    3.06
   4  -8   0   -0.45    0.83
   4  -8   0    1.68    0.85
  -4   8   0    0.04    0.84
  -4   8   0    2.32    1.04
  -4   8   0    1.11    0.74
  -4   8   0    1.47    0.76
  -4   8   0    2.37    0.96
   3  -8   0   36.72    2.70
  -3   8   0   35.48    2.88
  -3   8   0   39.35    2.79
  -3   8   0   35.43    2.04
  -3   8   0   36.14    2.78
  -3   8   0   35.00    2.68
   2  -8   0   14.54    1.91
  -2   8   0   15.63    2.08
  -2   8   0   12.91    2.13
  -2   8   0   19.49    2.57
  -2   8   0   11.53    1.99
  -2   8   0   11.74    1.09
   1  -8   0   16.23    1.97
  -1   8   0   16.89    2.45
  -1   8   0   13.51    2.14
   0  -8   0   11.98    0.95
   0  -8   0   11.97    1.56
   0  -8   0   13.44    2.08
   0   8   0   14.71    2.18
   0   8   0   13.14    2.36
  -1  -8   0    1.24    0.62
  -1  -8   0    0.87    0.59
  -1  -8   0    1.93    1.11
   1   8   0    1.76    0.96
   1   8   0    1.00    0.98
  -2  -8   0    0.00    0.42
  -2  -8   0   -0.11    0.54
  -2  -8   0    0.20    0.98
  -2  -8   0   -0.20    0.42
   2   8   0    0.61    0.90
   2   8   0    0.19    0.58
  -3  -8   0   20.48    0.95
  -3  -8   0   19.95    2.57
  -3  -8   0   20.35    1.83
   3   8   0   16.79    2.52
  -4  -8   0    0.40    0.96
  -4  -8   0    0.48    0.93
  -4  -8   0   -0.31    0.80
   4   8   0    0.74    0.87
  -5  -8   0   20.69    2.10
  -5  -8   0   15.41    2.22
   7  -9   0    2.25    1.43
   7  -9   0    1.98    1.21
   7  -9   0    1.04    1.09
  -7   9   0   -0.25    0.82
  -7   9   0    3.74    1.54
  -7   9   0    0.27    1.46
   6  -9   0    1.63    1.26
   6  -9   0    3.06    1.11
  -6   9   0    1.31    1.25
  -6   9   0    1.16    1.02
  -6   9   0    1.91    1.41
  -6   9   0    2.77    1.24
   5  -9   0    0.30    0.93
  -5   9   0   -0.03    0.64
  -5   9   0   -0.07    0.97
  -5   9   0    0.85    1.08
   4  -9   0    0.76    0.90
   4  -9   0    1.96    1.17
  -4   9   0   -0.35    1.04
  -4   9   0    2.30    1.28
  -4   9   0    3.61    1.22
  -4   9   0    1.50    1.15
   3  -9   0   -0.54    0.66
   3  -9   0   -0.71    0.91
  -3   9   0    1.38    1.05
  -3   9   0    0.00    0.78
  -3   9   0   -0.06    0.90
  -3   9   0   -0.96    0.69
  -3   9   0    1.16    1.09
   2  -9   0   15.99    2.49
   2  -9   0   14.29    2.03
  -2   9   0   12.28    2.25
  -2   9   0    8.98    1.02
  -2   9   0   14.42    2.08
  -2   9   0   12.21    2.16
   1  -9   0   27.28    2.48
   1  -9   0   25.30    2.17
   1  -9   0   28.79    2.23
  -1   9   0   22.47    1.94
  -1   9   0   27.50    2.64
  -1   9   0   25.48    3.20
   0  -9   0    1.55    0.89
   0  -9   0    1.71    1.29
   0  -9   0    1.90    0.90
   0   9   0    0.92    1.12
   0   9   0    2.45    1.29
   0   9   0    1.36    0.77
  -1  -9   0   -0.22    0.84
  -1  -9   0    0.30    0.54
   1   9   0   -0.49    0.78
   1   9   0   -1.24    0.50
  -2  -9   0    4.85    1.44
  -2  -9   0    3.63    0.81
  -2  -9   0    4.84    0.86
  -2  -9   0    3.58    0.82
   2   9   0    4.22    1.50
   2   9   0    3.19    1.35
  -3  -9   0    3.09    1.00
  -3  -9   0    4.41    1.45
  -3  -9   0    2.50    0.56
  -3  -9   0    2.96    0.55
   3   9   0    5.47    1.57
   3   9   0    5.00    1.52
  -4  -9   0    1.57    1.65
  -4  -9   0   -0.01    1.10
  -4  -9   0    0.61    0.86
   4   9   0    1.17    1.27
   4   9   0    0.97    1.31
   6 -10   0    6.07    1.87
   6 -10   0    4.74    1.50
   6 -10   0    2.28    1.40
  -6  10   0    4.50    1.50
  -6  10   0    6.37    1.86
  -6  10   0    5.65    1.69
  -6  10   0    6.91    2.13
   5 -10   0    5.11    1.56
   5 -10   0    5.49    1.74
  -5  10   0    6.02    1.85
  -5  10   0    2.76    1.37
  -5  10   0    4.60    1.58
  -5  10   0    2.75    1.68
   4 -10   0   -1.10    0.81
   4 -10   0    0.19    0.78
  -4  10   0   -0.22    1.09
  -4  10   0    0.29    0.97
  -4  10   0    1.35    1.05
  -4  10   0    0.41    1.09
   3 -10   0    0.67    1.16
   3 -10   0    0.97    1.54
   3 -10   0    0.32    0.76
  -3  10   0    1.91    1.34
  -3  10   0    0.64    1.19
  -3  10   0   -0.84    0.69
  -3  10   0   -0.42    1.04
   2 -10   0    1.67    1.13
   2 -10   0    2.39    1.21
   2 -10   0    1.82    0.95
  -2  10   0    0.04    0.84
  -2  10   0    1.45    1.27
  -2  10   0    1.25    0.91
   1 -10   0   12.54    1.86
   1 -10   0   12.67    1.85
   1 -10   0   10.29    2.02
  -1  10   0   12.23    2.47
  -1  10   0   10.64    2.14
  -1  10   0    7.92    2.23
   0 -10   0    5.80    1.22
   0 -10   0    8.87    1.92
   0 -10   0    5.61    1.34
   0  10   0    6.89    1.78
   0  10   0    8.90    1.85
  -1 -10   0    0.70    1.15
  -1 -10   0    1.49    0.82
  -1 -10   0    1.09    0.75
   1  10   0    2.93    1.11
   1  10   0    2.30    1.43
  -2 -10   0    4.36    0.89
  -2 -10   0    4.30    0.95
  -2 -10   0    5.79    1.83
   2  10   0    2.87    1.54
   2  10   0    3.61    1.44
   4 -11   0    2.50    1.40
   4 -11   0    3.61    1.50
  -4  11   0    0.08    1.26
  -4  11   0   -0.10    1.04
  -4  11   0    5.71    1.67
  -4  11   0    2.73    2.06
   3 -11   0    0.06    1.16
   3 -11   0   -0.46    0.97
  -3  11   0    0.49    1.24
  -3  11   0    2.26    1.30
   2 -11   0    4.53    1.68
   2 -11   0    3.39    1.40
  -2  11   0    4.82    1.81
  -2  11   0    1.27    1.18
   1 -11   0    4.36    1.29
   1 -11   0    3.53    1.63
  -1  11   0    2.57    1.31
  -1  11   0    4.13    1.46
   0 -11   0    5.16    1.56
   0 -11   0    5.33    1.32
   0  11   0    2.73    1.54
   0  11   0    2.22    1.35
   1  11  -1    0.34    1.01
   1  11  -1    1.47    1.35
  -1 -11   1    0.59    0.79
  -1 -11   1   -0.92    1.13
   0  11  -1    0.54    0.90
   0  11  -1    1.71    1.25
   0 -11   1   -0.48    1.11
   0 -11   1    0.80    0.94
  -1  11  -1    0.44    1.09
  -1  11  -1    0.37    1.44
   1 -11   1   -0.97    0.74
   1 -11   1   -1.25    0.99
  -2  11  -1    1.46    1.18
  -2  11  -1    1.87    1.29
   2 -11   1    0.82    0.99
   2 -11   1    0.48    1.09
  -3  11  -1    1.90    1.54
  -3  11  -1    0.50    1.15
   3 -11   1    1.85    1.12
  -4  11  -1   -1.59    0.87
  -4  11  -1   -0.96    0.78
  -4  11  -1   -0.95    1.74
  -4  11  -1   -1.06    0.87
   4 -11   1   -0.16    0.97
   4 -11   1    0.09    1.12
  -5  11  -1    0.11    1.20
  -5  11  -1    1.81    1.93
  -5  11  -1   -0.59    1.34
  -5  11  -1    0.22    0.97
   5 -11   1   -1.58    0.93
   5 -11   1   -0.23    1.14
   5 -11   1    0.72    1.16
   3  10  -1    2.91    1.59
   3  10  -1    5.18    2.93
  -3 -10   1    2.20    0.49
  -3 -10   1   -0.62    1.12
  -3 -10   1    1.78    0.49
   2  10  -1    0.09    1.07
   2  10  -1    1.06    1.31
  -2 -10   1   -0.22    0.60
  -2 -10   1   -0.04    0.64
  -2 -10   1   -0.40    1.09
   1  10  -1    0.90    1.08
   1  10  -1   -0.94    0.83
  -1 -10   1   -0.48    0.59
  -1 -10   1   -0.37    0.64
   0  10  -1   11.15    2.22
   0  10  -1    5.80    1.60
   0  10  -1    3.08    1.13
   0 -10   1    6.70    2.01
   0 -10   1    8.09    1.51
   0 -10   1    6.59    1.41
  -1  10  -1    7.58    1.99
  -1  10  -1    5.56    1.52
   1 -10   1    7.31    1.53
   1 -10   1    8.27    2.00
  -2  10  -1   -0.19    1.00
  -2  10  -1    0.25    1.07
  -2  10  -1    1.53    1.06
   2 -10   1    0.77    1.12
   2 -10   1   -0.94    0.62
   2 -10   1   -0.36    0.59
  -3  10  -1    6.01    1.61
  -3  10  -1    3.91    0.86
  -3  10  -1    4.89    1.41
  -3  10  -1    5.92    1.76
   3 -10   1    5.75    1.61
   3 -10   1    5.80    1.59
  -4  10  -1    1.90    1.21
  -4  10  -1    2.76    1.25
  -4  10  -1    1.52    1.27
  -4  10  -1    5.37    1.26
   4 -10   1    3.26    1.49
   4 -10   1    2.65    1.31
  -5  10  -1    3.55    1.73
  -5  10  -1    7.78    1.78
  -5  10  -1    6.95    1.81
   5 -10   1    3.90    1.58
   5 -10   1    4.84    1.51
   5 -10   1    2.48    1.32
  -6  10  -1   12.18    2.57
  -6  10  -1   12.24    2.57
  -6  10  -1   16.00    2.75
   6 -10   1   14.31    2.59
   6 -10   1   14.88    2.42
   6 -10   1   12.78    2.60
   4   9  -1   -0.08    0.95
  -4  -9   1   -0.35    0.80
  -4  -9   1    1.66    1.01
  -4  -9   1    1.15    1.08
   3   9  -1    7.43    1.80
   3   9  -1   10.17    2.05
  -3  -9   1    7.70    1.02
  -3  -9   1   13.25    2.22
  -3  -9   1   11.10    0.88
   2   9  -1    2.70    1.23
  -2  -9   1   -0.49    0.50
  -2  -9   1    1.50    0.60
  -2  -9   1    0.71    0.40
  -2  -9   1    0.53    1.04
   1   9  -1   -0.26    0.84
  -1  -9   1    0.03    0.63
  -1  -9   1    0.00    0.54
  -1  -9   1    1.65    1.06
   0   9  -1    0.16    0.84
   0   9  -1   -0.83    0.64
   0   9  -1    1.29    1.08
   0  -9   1   -0.36    0.68
   0  -9   1   -1.53    0.77
   0  -9   1   -0.33    0.66
  -1   9  -1   30.04    2.71
  -1   9  -1   27.65    2.62
   1  -9   1   26.19    2.55
   1  -9   1   31.12    2.38
  -2   9  -1    5.39    1.55
  -2   9  -1    4.44    1.50
   2  -9   1    3.06    1.12
   2  -9   1    4.80    1.29
   2  -9   1    5.12    1.57
  -3   9  -1    7.11    1.59
  -3   9  -1    4.06    1.27
  -3   9  -1    3.82    1.34
  -3   9  -1    4.60    1.65
  -3   9  -1    4.75    0.89
   3  -9   1    3.70    1.31
   3  -9   1    7.72    1.63
   3  -9   1    5.12    1.91
  -4   9  -1    2.35    1.11
  -4   9  -1    5.09    1.55
  -4   9  -1    3.50    1.29
  -4   9  -1    1.84    1.30
   4  -9   1    2.44    1.17
   4  -9   1    3.72    1.17
  -5   9  -1    8.11    2.00
  -5   9  -1    6.37    1.47
  -5   9  -1    8.67    1.97
   5  -9   1    7.65    1.90
   5  -9   1    7.28    1.67
   5  -9   1    4.88    1.50
  -6   9  -1    7.46    1.86
  -6   9  -1   11.25    1.89
  -6   9  -1   13.68    2.68
  -6   9  -1    8.66    2.16
   6  -9   1    8.22    2.23
   6  -9   1   10.89    2.01
   6  -9   1   16.88    2.80
  -7   9  -1    2.89    1.17
  -7   9  -1    5.18    2.17
  -7   9  -1    5.78    1.92
  -7   9  -1    8.10    1.95
   7  -9   1    3.36    1.61
   7  -9   1    4.32    1.34
   7  -9   1    4.30    1.33
   5   8  -1    1.59    1.43
  -5  -8   1    0.53    0.90
  -5  -8   1   -1.24    0.96
   4   8  -1    2.46    1.37
   4   8  -1    3.47    1.81
  -4  -8   1    3.08    1.18
  -4  -8   1    1.95    0.93
  -4  -8   1    3.10    1.11
   3   8  -1    0.19    0.97
   3   8  -1    1.15    0.88
   3   8  -1    2.25    1.13
  -3  -8   1    0.99    0.71
  -3  -8   1    1.79    1.00
  -3  -8   1    0.32    0.35
   2   8  -1    6.75    1.69
   2   8  -1    9.89    1.90
  -2  -8   1    7.08    1.01
  -2  -8   1    7.79    1.06
  -2  -8   1    9.91    1.77
   1   8  -1    4.77    0.63
   1   8  -1    6.62    1.61
   1   8  -1    5.67    1.39
  -1  -8   1    6.02    1.51
  -1  -8   1    6.35    1.09
  -1  -8   1    4.14    1.34
  -1  -8   1    4.35    1.10
  -1  -8   1    5.51    0.36
  -1  -8   1    6.65    1.09
   0   8  -1    2.02    0.69
   0   8  -1    0.56    0.92
   0   8  -1    2.04    1.10
   0  -8   1    1.14    0.76
   0  -8   1    0.95    0.67
   0  -8   1    3.55    1.21
   0  -8   1    1.83    0.72
  -1   8  -1   23.62    2.39
  -1   8  -1   26.60    2.39
   1  -8   1   23.36    1.95
   1  -8   1   26.49    2.38
   1  -8   1   24.84    1.98
  -2   8  -1    1.26    1.01
  -2   8  -1    3.25    1.02
  -2   8  -1    2.85    0.98
  -2   8  -1    1.77    0.92
   2  -8   1    2.97    1.21
   2  -8   1    2.85    1.08
   2  -8   1    3.51    1.19
  -3   8  -1   37.67    2.81
  -3   8  -1   37.05    2.74
  -3   8  -1   38.61    2.96
  -3   8  -1   34.52    2.64
  -3   8  -1   32.10    1.85
   3  -8   1   36.64    2.68
   3  -8   1   32.05    2.54
   3  -8   1   39.88    4.97
  -4   8  -1   15.05    2.43
  -4   8  -1   15.93    2.50
  -4   8  -1   10.25    1.86
  -4   8  -1    9.52    1.99
   4  -8   1   12.57    1.99
  -5   8  -1    0.96    1.26
  -5   8  -1    0.94    1.06
  -5   8  -1    2.26    0.83
  -5   8  -1    3.03    1.39
   5  -8   1    0.57    0.64
   5  -8   1    2.66    0.95
   5  -8   1    1.20    1.08
  -6   8  -1    1.98    1.33
  -6   8  -1    2.99    1.41
  -6   8  -1    2.22    1.08
   6  -8   1    2.73    1.14
   6  -8   1    0.74    0.91
   6  -8   1    1.40    1.13
  -7   8  -1    0.27    0.98
  -7   8  -1    2.25    1.04
  -7   8  -1    2.20    1.20
   7  -8   1    1.20    0.90
   7  -8   1    3.05    1.37
   7  -8   1    2.77    1.15
  -8   8  -1   -1.22    0.84
  -8   8  -1    0.65    1.27
  -8   8  -1   -1.06    1.17
   8  -8   1    2.05    1.44
   8  -8   1   -1.91    0.88
   8  -8   1    3.31    1.59
   6   7  -1    2.31    1.96
  -6  -7   1    1.02    1.20
  -6  -7   1    1.84    1.13
  -6  -7   1    2.20    1.19
   5   7  -1   -1.87    0.83
  -5  -7   1    0.32    0.83
  -5  -7   1   -0.89    0.73
  -5  -7   1    0.87    0.89
   4   7  -1   -0.05    0.90
   4   7  -1    0.02    1.00
  -4  -7   1   -1.39    0.58
  -4  -7   1    1.31    0.87
  -4  -7   1    0.40    0.68
   3   7  -1    0.67    0.95
   3   7  -1    1.59    0.99
   3   7  -1    2.12    1.09
  -3  -7   1    1.24    0.37
  -3  -7   1    1.02    0.71
  -3  -7   1   -0.17    0.70
  -3  -7   1    1.20    0.36
   2   7  -1   -0.55    0.45
   2   7  -1    0.21    0.84
   2   7  -1    0.28    0.61
  -2  -7   1    0.20    0.45
  -2  -7   1    0.14    0.54
  -2  -7   1   -0.59    0.63
  -2  -7   1   -0.34    0.40
   1   7  -1   17.26    0.97
   1   7  -1   18.35    1.92
   1   7  -1   20.39    2.55
  -1  -7   1   19.98    2.17
  -1  -7   1   20.61    1.49
  -1  -7   1   16.49    1.32
  -1  -7   1   18.09    1.72
  -1  -7   1   14.43    1.38
  -1  -7   1   18.94    2.31
  -1  -7   1   16.88    1.33
   0   7  -1   25.70    2.23
   0   7  -1   23.43    1.57
   0   7  -1   26.36    2.19
   0  -7   1   26.73    1.80
   0  -7   1   29.42    2.15
   0  -7   1   26.01    1.96
   0  -7   1   27.20    1.81
   0  -7   1   23.47    2.05
  -1   7  -1   94.46    4.16
  -1   7  -1   98.63    3.68
  -1   7  -1  105.75    4.60
   1  -7   1  100.30    4.39
   1  -7   1  103.18    3.80
   1  -7   1  110.40    4.38
   1  -7   1  107.11    3.89
  -2   7  -1    5.76    1.48
  -2   7  -1    5.09    0.78
  -2   7  -1    5.01    1.28
  -2   7  -1    4.70    1.21
   2  -7   1    5.55    1.28
   2  -7   1    4.43    1.16
   2  -7   1    6.73    1.22
  -3   7  -1    7.05    1.63
  -3   7  -1    9.07    1.65
  -3   7  -1    9.38    1.69
  -3   7  -1    9.52    1.60
  -3   7  -1    6.43    1.08
   3  -7   1    8.52    1.60
   3  -7   1    7.69    1.45
  -4   7  -1   -0.65    0.60
  -4   7  -1   -0.64    0.75
  -4   7  -1   -1.20    0.62
   4  -7   1    0.46    0.70
   4  -7   1   -0.54    0.56
   4  -7   1   -0.42    0.63
  -5   7  -1    6.25    1.55
  -5   7  -1    6.14    1.61
  -5   7  -1    5.75    1.34
   5  -7   1    5.11    1.46
   5  -7   1    4.40    1.13
   5  -7   1    5.58    1.59
  -6   7  -1   37.47    2.44
  -6   7  -1   30.04    2.92
  -6   7  -1   34.40    2.96
   6  -7   1   40.00    3.23
   6  -7   1   31.83    2.42
   6  -7   1   33.29    2.81
  -7   7  -1   21.61    2.98
  -7   7  -1   13.40    2.52
   7  -7   1   22.75    3.11
   7  -7   1   15.90    2.56
  -8   7  -1    2.91    1.35
  -8   7  -1    1.91    0.76
  -8   7  -1    3.35    1.77
   8  -7   1    2.94    1.47
   8  -7   1    2.10    0.81
   8  -7   1    4.72    1.70
   7   6  -1    4.78    2.47
   7   6  -1    5.55    2.29
  -7  -6   1    3.04    1.31
  -7  -6   1    1.86    0.86
  -7  -6   1    3.52    1.32
   6   6  -1    1.63    1.28
   6   6  -1    2.63    1.48
  -6  -6   1   -0.01    1.13
  -6  -6   1   -0.66    0.72
  -6  -6   1   -1.28    0.67
   5   6  -1    3.01    1.52
  -5  -6   1    3.57    0.90
  -5  -6   1    3.49    1.10
  -5  -6   1    1.11    0.92
   4   6  -1   29.50    2.76
   4   6  -1   28.97    2.46
  -4  -6   1   27.77    2.17
  -4  -6   1   28.75    2.21
  -4  -6   1   33.13    2.31
   3   6  -1   -0.31    0.84
   3   6  -1    0.13    0.82
   3   6  -1   -0.50    0.55
  -3  -6   1   -0.84    0.63
  -3  -6   1    0.00    0.21
  -3  -6   1   -0.40    0.52
  -3  -6   1    0.41    0.27
  -3  -6   1    0.72    0.64
   2   6  -1    6.51    1.40
   2   6  -1    8.91    1.61
   2   6  -1    8.91    1.56
  -2  -6   1    5.98    1.33
  -2  -6   1    6.54    0.82
  -2  -6   1    7.43    1.03
  -2  -6   1    8.21    0.75
  -2  -6   1    7.40    1.33
   1   6  -1    9.47    1.32
   1   6  -1    8.38    0.67
   1   6  -1    9.87    1.58
   1   6  -1    9.00    1.56
   1   6  -1    7.16    0.68
  -1  -6   1    9.89    0.93
  -1  -6   1    8.23    1.21
  -1  -6   1   12.47    2.19
  -1  -6   1   11.26    1.56
  -1  -6   1    9.94    1.23
  -1  -6   1    9.12    1.37
   0   6  -1    9.82    0.95
   0   6  -1    8.96    1.10
   0   6  -1   10.79    1.59
   0  -6   1   11.41    1.12
   0  -6   1   10.00    1.92
   0  -6   1   10.65    1.55
   0  -6   1    8.88    0.45
  -1   6  -1  147.37    5.24
  -1   6  -1  131.80    4.09
  -1   6  -1  136.65    4.66
  -1   6  -1  137.12    5.73
   1  -6   1  135.62    4.57
   1  -6   1  131.75    4.13
   1  -6   1  135.27    4.22
  -2   6  -1   20.47    2.01
  -2   6  -1   21.41    1.81
  -2   6  -1   21.04    1.20
  -2   6  -1   19.34    1.78
  -2   6  -1   19.32    1.66
   2  -6   1   22.01    1.78
   2  -6   1   20.58    1.69
   2  -6   1   22.03    1.75
   2  -6   1   19.56    1.66
  -3   6  -1   11.25    1.78
  -3   6  -1   10.59    1.06
  -3   6  -1   10.28    1.64
  -3   6  -1   13.06    1.63
  -3   6  -1   10.54    1.71
   3  -6   1    8.82    1.37
   3  -6   1   10.80    1.61
  -4   6  -1    2.05    0.89
  -4   6  -1    3.40    0.91
  -4   6  -1    1.45    0.84
  -4   6  -1    1.17    0.92
  -4   6  -1    1.56    0.50
   4  -6   1    0.36    0.58
   4  -6   1    0.77    0.75
   4  -6   1    0.56    0.68
  -5   6  -1   47.44    2.45
  -5   6  -1   41.32    2.88
  -5   6  -1   47.28    2.28
  -5   6  -1   46.32    3.15
   5  -6   1   43.30    2.31
   5  -6   1   49.37    3.25
  -6   6  -1   17.10    2.40
  -6   6  -1   14.43    1.43
  -6   6  -1   17.20    2.66
   6  -6   1   13.32    1.38
   6  -6   1   14.64    2.44
   6  -6   1   13.62    2.00
  -7   6  -1    2.05    0.82
  -7   6  -1    2.51    1.34
   7  -6   1    5.71    1.44
   7  -6   1    3.30    0.77
   7  -6   1    3.15    0.83
   7  -6   1    3.42    1.37
  -8   6  -1   -0.02    0.53
  -8   6  -1    2.02    1.21
  -8   6  -1   -0.06    1.29
   8  -6   1    2.87    1.31
   8  -6   1   -0.41    1.07
   8  -6   1    0.02    0.57
   8  -6   1   -0.24    0.45
  -9   6  -1    9.25    2.10
  -9   6  -1    8.84    2.19
   9  -6   1    7.01    2.09
   9  -6   1    9.67    2.52
   9  -6   1    8.05    2.06
   7   5  -1    1.27    1.43
   7   5  -1    0.92    1.48
   7   5  -1    0.49    1.19
  -7  -5   1    2.65    1.22
  -7  -5   1    0.66    1.09
   6   5  -1    2.93    1.20
   6   5  -1    3.44    1.67
   6   5  -1    2.00    1.29
  -6  -5   1    1.34    1.03
  -6  -5   1    4.41    1.10
  -6  -5   1    5.12    1.25
   5   5  -1   -0.16    0.93
  -5  -5   1   -0.96    0.43
  -5  -5   1    0.10    0.75
  -5  -5   1   -0.37    0.59
   4   5  -1    3.80    1.20
   4   5  -1    2.96    1.21
  -4  -5   1    4.46    1.13
   3   5  -1   -0.06    0.74
   3   5  -1    0.67    0.68
  -3  -5   1    1.61    0.64
  -3  -5   1    0.22    0.63
  -3  -5   1   -0.27    0.58
  -3  -5   1    0.82    0.23
  -3  -5   1    0.55    0.19
  -3  -5   1    0.88    0.64
   2   5  -1    6.02    1.14
   2   5  -1    5.85    1.18
   2   5  -1    3.84    1.22
  -2  -5   1    5.21    0.62
  -2  -5   1    4.80    1.08
  -2  -5   1    5.26    1.19
  -2  -5   1    4.64    0.60
  -2  -5   1    4.99    1.07
  -2  -5   1    5.35    0.79
  -2  -5   1    6.10    1.18
  -2  -5   1    5.71    1.24
   1   5  -1    0.74    0.53
   1   5  -1    0.71    0.59
   1   5  -1    1.59    0.34
   1   5  -1    0.91    0.73
  -1  -5   1    2.54    0.87
  -1  -5   1    0.82    0.70
  -1  -5   1    1.75    0.51
  -1  -5   1    1.38    0.71
  -1  -5   1    0.51    0.67
  -1  -5   1    1.03    0.40
  -1  -5   1    1.33    0.46
  -1  -5   1    0.97    0.51
  -1  -5   1    1.46    0.63
  -1  -5   1    1.33    0.56
   0   5  -1  509.29   10.02
   0   5  -1  488.84    8.46
   0   5  -1  491.72    8.00
   0   5  -1  526.87   10.24
   0  -5   1  483.48    9.23
   0  -5   1  494.85    7.96
   0  -5   1  489.65    9.73
   0  -5   1  489.24    8.83
   0  -5   1  502.50    7.14
   0  -5   1  485.15   10.68
  -1   5  -1    0.53    0.46
  -1   5  -1    0.88    0.54
  -1   5  -1    1.04    0.68
  -1   5  -1    0.95    0.64
  -1   5  -1    0.88    0.61
   1  -5   1    0.10    0.41
   1  -5   1    0.30    0.47
   1  -5   1    0.81    0.57
  -2   5  -1  280.82    7.07
  -2   5  -1  288.62    6.58
  -2   5  -1  287.00    5.53
  -2   5  -1  285.89    6.70
  -2   5  -1  282.36    6.46
   2  -5   1  271.03    6.35
   2  -5   1  280.05    6.45
   2  -5   1  285.80    6.52
   2  -5   1  297.23    6.71
  -3   5  -1   37.67    1.93
  -3   5  -1   37.55    1.33
  -3   5  -1   37.10    2.22
  -3   5  -1   40.87    2.38
  -3   5  -1   38.22    2.04
  -3   5  -1   42.47    2.39
   3  -5   1   38.33    2.18
   3  -5   1   39.33    2.01
   3  -5   1   38.63    2.09
   3  -5   1   40.01    2.35
  -4   5  -1    0.20    0.42
  -4   5  -1    0.23    0.55
  -4   5  -1   -0.01    0.44
  -4   5  -1    0.95    0.42
  -4   5  -1   -0.42    0.43
   4  -5   1   -0.65    0.39
   4  -5   1   -0.18    0.55
   4  -5   1    0.73    0.52
   4  -5   1    0.10    0.38
  -5   5  -1    2.76    0.98
  -5   5  -1    1.60    0.58
  -5   5  -1    0.17    0.47
  -5   5  -1    0.85    1.03
   5  -5   1    1.21    0.79
   5  -5   1   -0.03    0.73
   5  -5   1    2.18    0.67
   5  -5   1    3.36    1.17
  -6   5  -1   46.02    3.20
  -6   5  -1   45.51    2.13
  -6   5  -1   44.97    3.08
   6  -5   1   46.65    2.94
   6  -5   1   44.05    1.96
   6  -5   1   40.18    2.80
   6  -5   1   42.37    3.27
  -7   5  -1    3.95    0.77
  -7   5  -1    4.63    1.48
   7  -5   1    3.32    1.41
   7  -5   1    4.81    0.65
   7  -5   1    5.50    1.78
   7  -5   1    3.41    1.24
  -8   5  -1    8.94    1.97
  -8   5  -1    8.43    1.90
   8  -5   1   12.25    2.13
   8  -5   1   10.12    2.33
   8  -5   1   12.50    2.58
  -9   5  -1    1.23    1.03
  -9   5  -1   -2.18    1.06
   9  -5   1    1.12    1.16
   9  -5   1   -0.81    1.27
   9  -5   1   -0.84    1.60
   8   4  -1   -1.59    1.25
   8   4  -1    1.74    1.39
  -8  -4   1    0.35    1.00
  -8  -4   1    1.03    0.46
   7   4  -1    7.69    2.48
   7   4  -1    6.29    1.66
   7   4  -1    5.10    1.96
  -7  -4   1    7.77    1.76
  -7  -4   1    4.81    0.64
  -7  -4   1    3.71    0.78
   6   4  -1    8.60    1.97
   6   4  -1    5.94    1.55
   6   4  -1   12.50    2.61
  -6  -4   1   10.88    1.34
  -6  -4   1    9.30    0.68
  -6  -4   1    8.43    0.66
  -6  -4   1   10.85    1.79
   5   4  -1    1.56    1.12
   5   4  -1    0.48    1.00
   5   4  -1    0.93    1.12
  -5  -4   1    1.11    0.28
  -5  -4   1    0.94    0.71
  -5  -4   1    2.14    0.72
   4   4  -1    9.43    1.86
   4   4  -1   10.05    1.63
   4   4  -1   11.15    1.97
  -4  -4   1    9.84    1.70
  -4  -4   1   11.18    1.43
  -4  -4   1   10.02    0.41
  -4  -4   1   12.79    1.82
  -4  -4   1   10.11    1.46
  -4  -4   1   10.25    0.44
   3   4  -1   21.35    1.87
   3   4  -1   16.99    1.55
   3   4  -1   18.51    1.82
   3   4  -1   21.43    1.74
  -3  -4   1   17.89    1.40
  -3  -4   1   18.52    0.63
  -3  -4   1   17.35    1.58
  -3  -4   1   19.28    1.64
  -3  -4   1   16.39    1.55
  -3  -4   1   17.29    0.58
  -3  -4   1   15.52    1.45
   2   4  -1   46.92    2.42
   2   4  -1   53.34    2.59
   2   4  -1   46.68    2.42
  -2  -4   1   52.71    2.55
  -2  -4   1   48.27    2.33
  -2  -4   1   49.95    1.36
  -2  -4   1   54.20    2.60
  -2  -4   1   48.78    2.29
  -2  -4   1   49.29    1.39
  -2  -4   1   47.65    2.30
  -2  -4   1   50.27    2.32
  -2  -4   1   49.98    2.44
   1   4  -1   29.42    1.01
   1   4  -1   27.72    1.76
   1   4  -1   29.73    1.57
   1   4  -1   28.84    1.83
   1   4  -1   29.75    1.08
  -1  -4   1   31.35    1.19
  -1  -4   1   31.52    1.80
  -1  -4   1   30.66    1.56
  -1  -4   1   26.11    1.67
  -1  -4   1   30.49    1.86
  -1  -4   1   28.41    1.62
  -1  -4   1   30.93    1.93
  -1  -4   1   28.84    1.26
  -1  -4   1   28.19    1.23
   0   4  -1  183.68    4.70
   0   4  -1  183.27    4.85
   0   4  -1  177.54    3.48
   0   4  -1  180.35    3.83
   0  -4   1  185.15    4.79
   0  -4   1  176.68    4.53
   0  -4   1  181.14    3.50
   0  -4   1  178.13    4.60
   0  -4   1  184.81    4.38
   0  -4   1  182.38    4.07
   0  -4   1  183.60    2.83
  -1   4  -1  101.72    3.22
  -1   4  -1   99.38    3.09
  -1   4  -1  100.45    3.43
  -1   4  -1  104.56    3.24
  -1   4  -1  104.15    2.98
   1  -4   1  104.47    3.23
   1  -4   1   98.61    3.05
   1  -4   1  101.48    3.10
  -2   4  -1   33.19    1.80
  -2   4  -1   33.51    1.49
  -2   4  -1   32.44    0.98
  -2   4  -1   30.70    1.86
  -2   4  -1   31.39    1.68
   2  -4   1   34.81    1.91
   2  -4   1   31.74    1.69
   2  -4   1   32.06    1.91
   2  -4   1   32.87    1.80
  -3   4  -1   73.38    2.97
  -3   4  -1   68.98    2.45
  -3   4  -1   70.15    3.09
  -3   4  -1   67.37    2.20
  -3   4  -1   71.16    2.65
  -3   4  -1   67.93    2.86
   3  -4   1   71.76    2.98
   3  -4   1   74.11    3.29
   3  -4   1   71.93    2.94
   3  -4   1   71.75    3.04
   3  -4   1   72.55    2.53
   3  -4   1   73.86    2.46
  -4   4  -1   13.72    1.40
  -4   4  -1   13.94    1.81
  -4   4  -1   14.62    1.24
  -4   4  -1   14.03    1.40
  -4   4  -1   14.29    1.09
   4  -4   1   15.61    1.98
   4  -4   1   13.73    1.07
   4  -4   1   16.15    1.53
   4  -4   1   12.18    1.65
   4  -4   1   15.97    1.42
   4  -4   1   13.87    1.32
  -5   4  -1   19.57    1.23
  -5   4  -1   17.29    1.72
  -5   4  -1   22.43    1.98
   5  -4   1   18.90    1.84
   5  -4   1   18.96    1.14
   5  -4   1   18.43    1.99
   5  -4   1   17.61    1.74
  -6   4  -1    0.09    0.80
  -6   4  -1    0.51    0.40
  -6   4  -1    0.80    0.68
   6  -4   1   -0.77    0.80
   6  -4   1    2.12    1.15
   6  -4   1   -0.36    0.75
   6  -4   1    0.43    0.37
  -7   4  -1   15.09    2.31
  -7   4  -1   14.69    2.29
  -7   4  -1   13.86    2.06
   7  -4   1   13.24    2.03
   7  -4   1   16.86    2.57
   7  -4   1   14.61    2.49
   7  -4   1   15.54    2.56
  -8   4  -1   -0.77    0.81
  -8   4  -1   -0.70    1.09
  -8   4  -1   -0.12    0.26
  -8   4  -1    0.46    0.92
   8  -4   1   -0.31    0.90
   8  -4   1    0.15    0.68
   8  -4   1   -2.05    0.80
   8  -4   1    0.40    1.21
  -9   4  -1    5.79    1.77
  -9   4  -1    8.58    2.02
   9  -4   1   10.44    2.23
   9  -4   1    2.26    1.56
   9  -4   1    4.11    1.81
   9  -4   1    8.38    2.14
   8   3  -1    3.99    1.39
   8   3  -1    3.13    1.57
   8   3  -1    2.23    1.38
  -8  -3   1    4.47    0.91
  -8  -3   1    4.29    1.33
  -8  -3   1    3.90    0.89
   7   3  -1    5.66    1.73
   7   3  -1    7.59    2.30
   7   3  -1    8.19    1.56
  -7  -3   1    8.03    1.05
  -7  -3   1    6.17    1.45
  -7  -3   1   10.02    1.19
   6   3  -1   -0.10    0.81
   6   3  -1   -0.07    0.88
   6   3  -1   -1.48    0.96
  -6  -3   1    0.24    0.41
  -6  -3   1    0.56    0.64
  -6  -3   1    0.37    0.39
  -6  -3   1    0.89    0.38
   5   3  -1    0.07    0.99
   5   3  -1    0.53    0.65
   5   3  -1    0.63    0.85
  -5  -3   1    0.58    0.71
  -5  -3   1    1.06    0.81
  -5  -3   1    0.52    0.47
  -5  -3   1    1.41    0.76
  -5  -3   1    0.57    0.38
  -5  -3   1    0.80    0.36
   4   3  -1    6.59    1.22
   4   3  -1    3.26    1.39
   4   3  -1    4.20    1.17
  -4  -3   1    5.00    1.04
  -4  -3   1    3.08    0.93
  -4  -3   1    5.16    1.01
  -4  -3   1    4.61    0.45
  -4  -3   1    4.71    0.83
  -4  -3   1    3.63    0.54
  -4  -3   1    5.68    1.19
  -4  -3   1    5.81    1.15
   3   3  -1    8.03    1.35
   3   3  -1    6.21    1.13
   3   3  -1    8.19    1.29
   3   3  -1    5.81    1.22
  -3  -3   1    6.86    0.94
  -3  -3   1    7.06    1.17
  -3  -3   1    6.66    1.12
  -3  -3   1    5.66    0.39
  -3  -3   1    6.80    1.05
  -3  -3   1    6.37    0.43
  -3  -3   1    6.82    1.11
   2   3  -1  193.47    4.82
   2   3  -1  183.91    4.78
   2   3  -1  189.92    4.92
   2   3  -1  189.95    4.71
  -2  -3   1  174.19    4.63
  -2  -3   1  193.10    4.70
  -2  -3   1  189.37    4.40
  -2  -3   1  189.48    3.18
  -2  -3   1  193.16    4.77
  -2  -3   1  181.52    4.62
  -2  -3   1  185.51    3.09
  -2  -3   1  187.16    4.76
   1   3  -1  115.97    2.15
   1   3  -1  117.62    3.07
   1   3  -1  120.96    3.39
   1   3  -1  122.26    3.42
  -1  -3   1  118.06    3.40
  -1  -3   1  113.80    3.17
  -1  -3   1  122.93    2.52
  -1  -3   1  116.64    3.37
  -1  -3   1  114.82    3.33
  -1  -3   1  116.05    2.41
  -1  -3   1  115.67    3.01
  -1  -3   1  119.53    2.49
   0   3  -1  812.98   12.98
   0  -3   1  820.96   12.18
   0  -3   1  780.74   12.46
   0  -3   1  836.28   12.83
   0  -3   1  779.61   12.83
   0  -3   1  805.56   12.67
  -1   3  -1  204.20    4.42
  -1   3  -1  193.52    4.18
  -1   3  -1  192.36    2.98
  -1   3  -1  202.07    4.61
  -1   3  -1  195.16    4.32
   1  -3   1  191.64    4.18
   1  -3   1  199.03    4.26
   1  -3   1  196.70    4.28
   1  -3   1  193.63    4.29
  -2   3  -1  159.06    4.08
  -2   3  -1  168.45    3.68
  -2   3  -1  161.85    4.06
  -2   3  -1  164.21    3.32
   2  -3   1  169.74    3.64
   2  -3   1  161.02    4.08
   2  -3   1  165.27    4.16
   2  -3   1  166.08    4.07
  -3   3  -1   98.28    2.59
  -3   3  -1   97.76    3.29
  -3   3  -1   99.57    3.40
  -3   3  -1  100.45    3.36
  -3   3  -1   96.82    2.93
   3  -3   1   98.29    3.33
   3  -3   1   99.03    3.34
   3  -3   1  105.81    3.02
   3  -3   1  103.04    3.11
   3  -3   1  103.83    3.61
   3  -3   1   97.00    3.19
  -4   3  -1   92.47    3.39
  -4   3  -1   96.44    3.54
  -4   3  -1   96.91    2.52
  -4   3  -1   90.10    3.28
  -4   3  -1   96.62    3.65
   4  -3   1   94.59    3.40
   4  -3   1   94.87    3.86
   4  -3   1   90.46    3.46
   4  -3   1   94.80    3.43
   4  -3   1   94.64    2.40
   4  -3   1   92.97    3.44
  -5   3  -1   99.22    3.78
  -5   3  -1  103.89    4.13
  -5   3  -1   97.80    2.54
   5  -3   1   97.01    4.09
   5  -3   1  103.84    3.85
  -6   3  -1   90.82    4.13
  -6   3  -1   90.88    2.40
  -6   3  -1   93.59    3.95
  -6   3  -1   90.71    4.10
   6  -3   1   90.75    3.85
   6  -3   1   93.61    4.73
   6  -3   1   96.15    4.56
   6  -3   1   89.94    4.50
  -7   3  -1    2.52    1.19
  -7   3  -1    5.41    1.40
  -7   3  -1    4.66    1.38
   7  -3   1    3.52    1.96
   7  -3   1    3.40    1.45
   7  -3   1    2.05    1.11
  -8   3  -1   14.35    2.29
  -8   3  -1   15.64    2.39
  -8   3  -1   11.78    2.02
   8  -3   1   17.29    2.67
   8  -3   1   12.24    2.78
   8  -3   1   13.36    2.54
   8  -3   1   14.74    2.17
  -9   3  -1    1.80    1.05
  -9   3  -1    0.53    1.12
   9  -3   1   -0.51    1.70
   9  -3   1    1.63    1.10
   9  -3   1    2.88    1.50
   9  -3   1    4.44    1.73
   9   2  -1    0.37    1.44
   9   2  -1   -0.47    1.57
   9   2  -1   -1.10    1.51
  -9  -2   1    2.43    0.83
  -9  -2   1    1.50    1.12
   8   2  -1   11.06    2.18
   8   2  -1   14.36    2.90
   8   2  -1   12.32    2.58
  -8  -2   1   14.82    1.49
  -8  -2   1   10.72    1.89
   7   2  -1   -0.24    0.64
   7   2  -1   -0.40    1.10
   7   2  -1    1.14    1.10
  -7  -2   1    0.64    0.58
  -7  -2   1    2.11    1.05
   6   2  -1   66.81    4.28
   6   2  -1   77.50    4.43
  -6  -2   1   69.59    3.51
  -6  -2   1   74.96    3.78
  -6  -2   1   71.03    1.92
  -6  -2   1   69.83    3.08
  -6  -2   1   70.61    2.66
   5   2  -1   16.21    2.40
   5   2  -1   16.23    1.62
  -5  -2   1   15.06    1.52
  -5  -2   1   14.52    1.34
  -5  -2   1   15.77    1.09
   4   2  -1    1.19    0.76
   4   2  -1   -0.43    0.60
   4   2  -1    1.45    0.59
  -4  -2   1    1.75    0.62
  -4  -2   1    1.04    0.47
  -4  -2   1    1.22    0.35
  -4  -2   1    1.65    0.76
  -4  -2   1    0.96    0.37
  -4  -2   1   -0.03    0.38
   3   2  -1   17.18    1.57
   3   2  -1   15.42    1.48
   3   2  -1   16.79    1.48
  -3  -2   1   16.70    0.77
  -3  -2   1   15.65    1.41
  -3  -2   1   16.10    0.77
  -3  -2   1   16.27    1.26
  -3  -2   1   16.41    1.31
  -3  -2   1   16.16    1.34
  -3  -2   1   18.32    1.26
   2   2  -1    7.39    0.93
   2   2  -1    9.05    1.21
   2   2  -1    6.91    0.95
  -2  -2   1    7.67    0.70
  -2  -2   1    7.67    0.44
  -2  -2   1    8.98    0.87
  -2  -2   1    7.13    0.96
  -2  -2   1    7.92    0.64
  -2  -2   1    8.54    0.81
  -2  -2   1    7.43    0.92
   1   2  -1  188.46    3.04
   1   2  -1  197.12    4.09
   1   2  -1  198.99    4.03
   1   2  -1  197.61    3.88
   1   2  -1  196.51    4.15
   1   2  -1  195.75    3.01
  -1  -2   1  191.38    3.94
  -1  -2   1  191.03    4.10
  -1  -2   1  192.97    3.78
  -1  -2   1  189.94    3.24
  -1  -2   1  195.70    3.19
  -1  -2   1  194.56    4.07
  -1  -2   1  195.27    4.00
  -1  -2   1  190.56    3.87
   0   2  -1   -0.02    0.04
  -1   2  -1  257.95    4.86
  -1   2  -1  265.51    4.93
  -1   2  -1  256.71    4.51
  -1   2  -1  258.66    5.17
  -1   2  -1  251.20    4.17
   1  -2   1  255.84    4.79
   1  -2   1  260.26    4.61
   1  -2   1  256.48    4.49
   1  -2   1  261.68    4.88
   1  -2   1  258.21    4.80
  -2   2  -1  110.97    3.47
  -2   2  -1  110.62    2.80
  -2   2  -1  103.18    2.90
  -2   2  -1  110.70    2.32
   2  -2   1  111.54    3.01
   2  -2   1  109.33    2.67
   2  -2   1  111.88    2.94
   2  -2   1  111.16    2.98
   2  -2   1  110.36    2.86
  -3   2  -1   35.81    1.91
  -3   2  -1   38.86    1.94
  -3   2  -1   39.69    1.21
  -3   2  -1   41.39    1.91
   3  -2   1   38.03    1.87
   3  -2   1   40.42    2.18
   3  -2   1   39.11    1.21
   3  -2   1   39.50    1.84
   3  -2   1   38.44    1.88
   3  -2   1   39.08    2.03
  -4   2  -1  160.31    4.60
  -4   2  -1  158.31    4.42
  -4   2  -1  158.11    4.57
  -4   2  -1  160.25    3.09
   4  -2   1  156.28    4.39
   4  -2   1  162.21    4.41
   4  -2   1  156.31    5.11
   4  -2   1  161.78    2.67
   4  -2   1  160.53    5.03
  -5   2  -1    3.35    0.88
  -5   2  -1    1.67    0.78
   5  -2   1    4.60    1.38
   5  -2   1    2.35    0.86
   5  -2   1    2.39    0.88
   5  -2   1    3.71    1.30
  -6   2  -1    0.25    0.54
  -6   2  -1   -0.12    0.28
  -6   2  -1   -0.31    0.61
  -6   2  -1    0.34    0.54
   6  -2   1    1.58    1.16
   6  -2   1   -0.08    0.67
   6  -2   1    0.31    0.81
   6  -2   1    1.39    0.80
  -7   2  -1   17.82    2.45
  -7   2  -1   14.86    1.03
  -7   2  -1   16.11    2.08
  -7   2  -1   17.62    2.30
   7  -2   1   15.06    2.49
   7  -2   1   17.20    1.76
   7  -2   1   14.51    2.32
  -8   2  -1    2.31    1.33
  -8   2  -1    2.81    1.22
   8  -2   1    3.65    1.45
   8  -2   1    3.30    1.84
   8  -2   1    6.17    1.67
  -9   2  -1    6.15    1.54
  -9   2  -1   11.38    2.25
   9  -2   1    8.02    1.94
   9  -2   1    7.06    2.07
   9  -2   1   10.24    2.64
   9   1  -1   10.47    3.37
   9   1  -1    5.50    1.63
  -9  -1   1    8.97    1.96
  -9  -1   1    4.06    1.19
   8   1  -1   13.76    2.81
   8   1  -1    9.52    2.08
   8   1  -1   11.56    2.54
  -8  -1   1    9.37    1.42
  -8  -1   1    9.04    1.46
   7   1  -1   34.73    3.26
   7   1  -1   29.38    1.44
   7   1  -1   32.83    2.65
   7   1  -1   28.14    3.02
  -7  -1   1   32.85    2.62
  -7  -1   1   30.83    2.01
  -7  -1   1   31.47    2.05
  -7  -1   1   31.24    2.12
   6   1  -1   22.17    2.06
   6   1  -1   23.49    2.41
   6   1  -1   21.93    1.22
   6   1  -1   20.16    2.84
  -6  -1   1   21.89    1.64
  -6  -1   1   20.65    1.94
  -6  -1   1   19.77    1.59
  -6  -1   1   18.34    1.44
   5   1  -1    1.09    0.63
   5   1  -1    1.27    0.41
   5   1  -1    1.42    0.48
   5   1  -1    1.52    0.86
   5   1  -1    1.90    1.09
  -5  -1   1    1.00    0.44
  -5  -1   1    1.23    0.71
  -5  -1   1    0.40    0.44
  -5  -1   1    1.06    0.25
  -5  -1   1    1.00    0.59
   4   1  -1   79.85    3.51
   4   1  -1   83.39    3.03
   4   1  -1   77.99    2.27
   4   1  -1   81.60    3.61
  -4  -1   1   84.60    1.96
  -4  -1   1   84.25    2.50
  -4  -1   1   81.19    3.06
  -4  -1   1   79.35    3.39
  -4  -1   1   79.86    2.41
  -4  -1   1   84.22    2.69
  -4  -1   1   82.90    3.07
  -4  -1   1   78.36    2.86
   3   1  -1    2.62    0.88
   3   1  -1    2.92    0.44
   3   1  -1    3.34    0.90
  -3  -1   1    2.23    0.57
  -3  -1   1    3.32    0.76
  -3  -1   1    3.67    0.89
  -3  -1   1    2.86    0.85
  -3  -1   1    2.95    0.44
  -3  -1   1    3.07    0.52
  -3  -1   1    2.03    0.63
  -3  -1   1    2.45    0.50
  -3  -1   1    3.25    0.65
   2   1  -1  327.28    4.95
   2   1  -1  329.19    5.27
   2   1  -1  329.68    5.73
   2   1  -1  320.23    4.94
   2   1  -1  323.74    6.17
   2   1  -1  331.85    6.44
  -2  -1   1  325.14    5.97
  -2  -1   1  322.58    5.11
  -2  -1   1  323.28    5.24
  -2  -1   1  324.14    6.11
  -2  -1   1  326.51    5.15
  -2  -1   1  324.61    5.60
  -2  -1   1  316.18    6.28
   1   1  -1    1.42    0.32
   1   1  -1    1.64    0.33
   1   1  -1    1.57    0.25
   1   1  -1    1.78    0.44
   1   1  -1    1.63    0.25
   1   1  -1    1.97    0.47
   1   1  -1    1.64    0.35
  -1  -1   1    1.22    0.30
  -1  -1   1    1.32    0.29
  -1  -1   1    2.03    0.29
  -1  -1   1    2.11    0.40
  -1  -1   1    2.33    0.40
  -1  -1   1    1.72    0.27
  -1  -1   1    2.28    0.49
  -1  -1   1    1.63    0.40
   0   1  -1  262.21    4.26
   0   1  -1  247.69    4.06
   0  -1   1  256.75    4.10
   0  -1   1  253.64    3.69
  -1   1  -1  247.55    3.91
  -1   1  -1  249.65    4.42
  -1   1  -1  238.17    4.35
  -1   1  -1  253.22    4.34
  -1   1  -1  246.81    4.32
  -1   1  -1  243.41    3.65
  -1   1  -1  259.28    4.41
   1  -1   1  248.57    4.34
   1  -1   1  249.71    4.41
   1  -1   1  247.92    3.91
   1  -1   1  248.21    4.30
   1  -1   1  248.83    3.66
   1  -1   1  248.45    4.38
  -2   1  -1   40.84    0.96
  -2   1  -1   39.41    0.84
  -2   1  -1   40.56    1.78
  -2   1  -1   43.28    1.79
  -2   1  -1   41.27    1.84
  -2   1  -1   41.39    1.77
   2  -1   1   40.28    0.94
   2  -1   1   40.15    1.53
   2  -1   1   38.92    1.76
   2  -1   1   38.24    1.49
   2  -1   1   43.47    1.56
  -3   1  -1    1.38    0.62
  -3   1  -1    4.36    0.94
  -3   1  -1    1.20    0.59
  -3   1  -1    1.19    0.54
   3  -1   1    0.77    0.79
   3  -1   1    1.21    0.47
   3  -1   1    2.02    0.57
   3  -1   1    1.55    0.54
   3  -1   1    1.77    0.65
   3  -1   1    2.10    0.74
  -4   1  -1    9.50    1.29
  -4   1  -1    7.29    1.09
  -4   1  -1   10.74    1.34
  -4   1  -1    8.56    0.56
  -4   1  -1    7.96    1.54
   4  -1   1    8.38    1.42
   4  -1   1    9.07    1.56
   4  -1   1   10.84    1.48
   4  -1   1    8.84    1.09
   4  -1   1    9.70    1.32
  -5   1  -1  147.67    4.30
  -5   1  -1  145.04    3.00
   5  -1   1  149.41    5.14
   5  -1   1  142.39    4.80
   5  -1   1  148.59    5.53
  -6   1  -1  121.70    4.16
  -6   1  -1  127.88    4.48
  -6   1  -1  119.01    4.56
   6  -1   1  123.56    5.54
   6  -1   1  130.73    5.16
   6  -1   1  125.53    5.57
  -7   1  -1    0.76    0.74
  -7   1  -1    1.14    0.84
  -7   1  -1    0.44    0.85
   7  -1   1    1.88    1.11
   7  -1   1    0.34    1.40
   7  -1   1    0.55    0.69
   7  -1   1   -1.60    0.78
  -8   1  -1    1.70    1.26
  -8   1  -1    1.55    0.98
  -8   1  -1    0.58    0.85
   8  -1   1   -0.80    1.12
   8  -1   1    0.47    0.86
   8  -1   1    2.52    1.54
   8  -1   1    0.09    1.09
  -9   1  -1    3.97    1.53
  -9   1  -1    6.03    1.57
   9  -1   1    2.06    1.65
   9  -1   1    5.73    1.88
   9  -1   1    3.88    2.00
   9   0  -1   -0.46    1.45
   9   0  -1    0.63    1.17
   9   0  -1    0.66    1.52
  -9   0   1   -0.86    0.75
  -9   0   1    2.91    1.14
   8   0  -1   -0.16    0.64
   8   0  -1    0.32    0.91
   8   0  -1    0.76    1.19
   8   0  -1   -0.14    0.88
  -8   0   1   -0.17    0.79
  -8   0   1   -0.31    0.74
  -8   0   1   -1.27    0.62
   7   0  -1   91.65    3.21
   7   0  -1   96.39    5.24
   7   0  -1   99.47    5.34
   7   0  -1   93.36    4.35
  -7   0   1   87.89    3.23
  -7   0   1   88.94    4.26
  -7   0   1   89.35    3.78
  -7   0   1   92.08    3.69
   6   0  -1  124.29    5.49
   6   0  -1  123.66    4.57
   6   0  -1  112.42    3.45
   6   0  -1  117.77    5.25
  -6   0   1  121.52    4.59
  -6   0   1  120.56    4.05
  -6   0   1  116.86    3.92
  -6   0   1  111.70    3.51
   5   0  -1    3.43    0.99
   5   0  -1    1.55    0.83
   5   0  -1    2.30    0.60
   5   0  -1    2.35    0.82
  -5   0   1    2.37    0.65
  -5   0   1    1.91    0.94
  -5   0   1    2.59    0.80
   4   0  -1   14.26    1.78
   4   0  -1   18.38    1.76
   4   0  -1   17.44    1.41
   4   0  -1   19.05    1.42
   4   0  -1   17.29    1.12
  -4   0   1   16.47    1.49
  -4   0   1   16.47    0.55
  -4   0   1   17.52    1.44
  -4   0   1   16.11    1.24
  -4   0   1   18.59    1.23
   3   0  -1    7.42    1.02
   3   0  -1    8.23    1.21
   3   0  -1    8.84    0.83
   3   0  -1    8.39    0.72
   3   0  -1    6.85    0.43
   3   0  -1    8.11    1.24
  -3   0   1    6.90    0.41
  -3   0   1    8.39    1.19
  -3   0   1    5.56    0.96
  -3   0   1    7.64    0.89
  -3   0   1    4.88    0.86
  -3   0   1    7.52    0.75
   2   0  -1  140.30    3.17
   2   0  -1  136.65    3.42
   2   0  -1  138.36    2.83
   2   0  -1  140.50    2.41
   2   0  -1  141.57    2.89
   2   0  -1  139.49    3.41
  -2   0   1  135.59    3.13
  -2   0   1  139.84    2.40
  -2   0   1  139.40    2.90
  -2   0   1  137.99    3.38
  -2   0   1  137.81    2.89
  -2   0   1  148.60    3.49
   1   0  -1  241.50    3.88
   1   0  -1  243.75    4.09
   1   0  -1  233.53    3.64
   1   0  -1  244.61    4.21
   1   0  -1  233.68    4.17
  -1   0   1  246.95    4.22
  -1   0   1  233.44    3.89
  -1   0   1  233.49    3.65
  -1   0   1  233.51    3.85
  -1   0   1  235.92    3.96
  -1   0  -1   14.94    0.96
  -1   0  -1   13.35    0.63
  -1   0  -1   12.84    0.64
  -1   0  -1   12.03    0.80
  -1   0  -1   13.59    0.49
  -1   0  -1   13.68    0.85
  -1   0  -1   13.16    0.45
  -1   0  -1   13.45    0.64
   1   0   1   12.90    0.70
   1   0   1   12.86    0.84
   1   0   1   12.90    0.83
   1   0   1   14.43    0.97
   1   0   1   13.16    0.62
   1   0   1   12.72    0.48
  -2   0  -1    0.65    0.33
  -2   0  -1    0.09    0.33
  -2   0  -1   -0.23    0.36
  -2   0  -1    0.63    0.28
  -2   0  -1    0.57    0.30
  -2   0  -1    0.50    0.15
  -2   0  -1    0.46    0.22
  -2   0  -1    1.20    0.53
   2   0   1    0.18    0.29
   2   0   1    0.75    0.27
   2   0   1    1.05    0.61
   2   0   1    0.61    0.42
  -3   0  -1  123.12    3.11
  -3   0  -1  126.26    3.99
  -3   0  -1  127.38    3.37
  -3   0  -1  119.68    2.50
  -3   0  -1  123.58    3.95
  -3   0  -1  121.28    2.98
  -3   0  -1  124.79    3.75
  -3   0  -1  121.32    1.93
   3   0   1  126.58    3.83
   3   0   1  119.34    4.04
   3   0   1  122.36    2.89
   3   0   1  124.03    3.32
   3   0   1  126.07    4.12
  -4   0  -1    4.06    0.81
  -4   0  -1    3.67    0.60
  -4   0  -1    5.44    1.25
  -4   0  -1    4.97    0.93
  -4   0  -1    3.37    0.68
   4   0   1    3.24    1.04
   4   0   1    3.75    0.92
   4   0   1    3.70    0.70
   4   0   1    3.87    1.05
   4   0   1    3.64    0.73
  -5   0  -1    1.31    0.40
  -5   0  -1    0.79    0.58
  -5   0  -1    0.94    0.52
   5   0   1    0.08    0.66
   5   0   1    1.26    0.67
   5   0   1    0.48    0.68
   5   0   1    1.07    0.74
   5   0   1    1.23    0.55
  -6   0  -1   95.22    3.98
  -6   0  -1   84.65    3.23
  -6   0  -1   82.76    2.47
  -6   0  -1   83.54    3.39
   6   0   1   93.50    4.89
   6   0   1   79.16    4.62
   6   0   1   83.10    2.83
  -7   0  -1   15.57    1.55
  -7   0  -1   13.29    2.08
  -7   0  -1   14.57    1.03
  -7   0  -1   13.30    1.88
   7   0   1   14.28    2.21
   7   0   1   11.64    1.18
   7   0   1   15.45    2.91
   7   0   1   14.47    2.62
  -8   0  -1   16.56    1.04
  -8   0  -1   16.21    2.06
  -8   0  -1   17.63    2.43
  -8   0  -1   14.92    2.04
   8   0   1   18.38    2.83
   8   0   1   15.86    3.04
   8   0   1   13.80    2.79
  -9   0  -1    4.13    1.33
  -9   0  -1    8.27    2.05
   9   0   1    4.18    2.06
   9   0   1    2.42    1.43
   9  -1  -1    0.79    1.53
   9  -1  -1    1.39    1.07
   9  -1  -1    2.26    1.29
  -9   1   1    0.25    0.95
  -9   1   1    1.01    0.99
   8  -1  -1    3.02    1.73
   8  -1  -1   -0.57    0.83
   8  -1  -1    1.72    0.93
  -8   1   1    2.42    1.00
  -8   1   1    0.60    1.10
  -8   1   1    0.72    0.82
   7  -1  -1   39.16    3.33
   7  -1  -1   38.49    2.86
   7  -1  -1   30.49    2.80
   7  -1  -1   43.17    4.05
  -7   1   1   42.17    2.73
  -7   1   1   43.27    2.91
   6  -1  -1   29.31    2.67
   6  -1  -1   35.63    2.05
   6  -1  -1   33.67    2.73
   6  -1  -1   32.99    2.37
  -6   1   1   36.89    2.51
  -6   1   1   35.24    2.29
  -6   1   1   35.34    2.18
   5  -1  -1   -0.37    0.34
   5  -1  -1   -0.36    0.41
   5  -1  -1   -0.41    0.33
   5  -1  -1    0.09    0.49
  -5   1   1   -0.29    0.37
  -5   1   1    0.02    0.42
   4  -1  -1   18.05    1.45
   4  -1  -1   19.24    1.31
   4  -1  -1   18.59    0.66
   4  -1  -1   19.52    1.35
   4  -1  -1   19.26    1.71
   4  -1  -1   17.80    1.61
   4  -1  -1   21.97    1.53
  -4   1   1   18.93    1.34
  -4   1   1   18.99    1.41
  -4   1   1   18.76    1.49
   3  -1  -1   25.98    1.34
   3  -1  -1   26.81    1.69
   3  -1  -1   25.22    1.42
   3  -1  -1   23.56    1.46
   3  -1  -1   22.83    1.52
  -3   1   1   23.92    1.39
  -3   1   1   25.00    1.50
  -3   1   1   25.39    1.73
  -3   1   1   26.49    1.37
  -3   1   1   23.96    1.42
   2  -1  -1    2.82    0.37
   2  -1  -1    2.88    0.62
   2  -1  -1    2.75    0.56
   2  -1  -1    4.30    0.64
   2  -1  -1    2.40    0.50
  -2   1   1    2.58    0.54
  -2   1   1    3.78    0.63
  -2   1   1    3.63    0.62
  -2   1   1    2.86    0.59
  -2   1   1    3.43    0.59
   1  -1  -1    0.22    0.25
   1  -1  -1    0.33    0.23
   1  -1  -1    0.27    0.31
  -1   1   1    0.38    0.24
  -1   1   1    0.44    0.33
  -1   1   1    0.42    0.33
  -1   1   1    0.44    0.32
  -1  -1  -1   95.54    2.18
  -1  -1  -1   91.05    2.06
  -1  -1  -1   95.34    1.91
  -1  -1  -1   93.71    1.74
  -1  -1  -1   97.33    2.65
  -1  -1  -1   99.26    3.02
  -1  -1  -1   94.45    1.81
  -1  -1  -1   91.26    3.05
  -1  -1  -1  102.04    2.56
   1   1   1   91.86    2.63
   1   1   1   95.84    2.69
   1   1   1   91.63    1.60
   1   1   1   91.79    2.04
   1   1   1   99.56    2.83
   1   1   1   94.27    1.64
   1   1   1   93.38    2.18
  -2  -1  -1  108.18    2.18
  -2  -1  -1  109.54    2.55
  -2  -1  -1  106.72    3.34
  -2  -1  -1  107.54    2.60
  -2  -1  -1  111.72    3.22
  -2  -1  -1  101.36    3.27
  -2  -1  -1  105.71    2.65
  -2  -1  -1  108.38    2.23
   2   1   1  106.11    1.90
   2   1   1  108.53    2.53
   2   1   1  107.43    3.45
   2   1   1  106.91    2.19
   2   1   1  105.22    3.23
   2   1   1  109.43    3.49
   2   1   1  104.37    2.58
  -3  -1  -1   41.19    1.50
  -3  -1  -1   41.30    1.84
  -3  -1  -1   38.83    1.79
  -3  -1  -1   43.26    2.37
  -3  -1  -1   41.76    1.57
   3   1   1   40.15    1.29
   3   1   1   40.29    1.17
   3   1   1   39.13    2.44
   3   1   1   41.58    2.49
   3   1   1   39.39    2.06
   3   1   1   41.77    2.20
  -4  -1  -1  133.69    3.31
  -4  -1  -1  120.04    3.73
  -4  -1  -1  133.64    3.89
  -4  -1  -1  124.77    2.57
  -4  -1  -1  127.18    4.64
  -4  -1  -1  130.41    2.52
  -4  -1  -1  132.10    4.45
  -4  -1  -1  130.28    3.19
  -4  -1  -1  126.57    3.27
   4   1   1  126.63    4.92
   4   1   1  132.97    5.00
   4   1   1  124.81    2.63
   4   1   1  131.53    4.54
   4   1   1  124.18    3.78
  -5  -1  -1   18.01    1.24
  -5  -1  -1   22.47    1.76
  -5  -1  -1   20.64    1.73
  -5  -1  -1   16.20    1.47
  -5  -1  -1   18.88    1.26
  -5  -1  -1   18.49    1.77
  -5  -1  -1   17.85    0.63
   5   1   1   23.16    2.43
   5   1   1   17.81    2.51
   5   1   1   17.80    1.55
   5   1   1   17.95    0.93
   5   1   1   17.99    0.94
  -6  -1  -1   46.63    2.33
  -6  -1  -1   46.91    2.83
  -6  -1  -1   43.92    2.02
  -6  -1  -1   45.24    2.15
   6   1   1   43.64    1.50
   6   1   1   45.29    3.15
   6   1   1   44.96    3.58
   6   1   1   48.17    3.75
  -7  -1  -1    4.31    1.27
  -7  -1  -1    3.97    0.87
  -7  -1  -1    4.90    1.17
  -7  -1  -1    3.38    0.89
   7   1   1    4.83    1.87
   7   1   1    5.90    1.82
   7   1   1    1.63    1.22
  -8  -1  -1    9.13    1.56
  -8  -1  -1    7.40    1.30
  -8  -1  -1    7.31    1.38
   8   1   1    9.86    2.46
   8   1   1    8.61    2.04
   8   1   1    7.09    1.74
  -9  -1  -1    1.34    0.91
  -9  -1  -1    3.54    1.42
   9   1   1    3.99    1.93
   9   1   1    1.47    1.86
   9   1   1    1.26    1.47
   9  -2  -1    1.97    1.50
   9  -2  -1    3.27    1.73
   9  -2  -1    1.06    1.26
   9  -2  -1    1.13    1.11
  -9   2   1    2.15    1.22
  -9   2   1    0.46    0.91
   8  -2  -1    1.99    1.03
   8  -2  -1    4.18    1.81
   8  -2  -1    2.90    0.83
  -8   2   1    5.75    1.63
  -8   2   1    2.98    1.16
   7  -2  -1  136.67    5.30
   7  -2  -1  138.50    6.13
   7  -2  -1  138.78    6.98
   7  -2  -1  134.91    5.39
  -7   2   1  134.79    4.99
  -7   2   1  142.17    5.50
  -7   2   1  136.79    5.19
   6  -2  -1  133.12    5.36
   6  -2  -1  138.68    4.96
   6  -2  -1  143.99    5.81
  -6   2   1  140.21    4.73
  -6   2   1  137.91    4.98
  -6   2   1  134.02    4.79
   5  -2  -1   42.00    2.66
   5  -2  -1   49.79    3.61
   5  -2  -1   43.00    1.22
   5  -2  -1   43.62    2.30
  -5   2   1   39.27    2.23
  -5   2   1   38.77    2.77
  -5   2   1   50.29    3.17
   4  -2  -1    2.05    0.80
   4  -2  -1    1.55    0.65
   4  -2  -1    3.73    0.99
   4  -2  -1    2.54    0.43
   4  -2  -1    2.74    0.81
   4  -2  -1    3.05    0.81
  -4   2   1    3.10    0.83
  -4   2   1    2.88    0.75
  -4   2   1    4.06    1.00
  -4   2   1    1.95    0.77
  -4   2   1    2.87    0.77
   3  -2  -1    8.05    1.16
   3  -2  -1    7.10    1.05
   3  -2  -1    7.94    1.05
   3  -2  -1    6.97    1.02
  -3   2   1    7.73    1.10
  -3   2   1    9.10    1.14
  -3   2   1    7.53    1.20
  -3   2   1    8.75    1.15
  -3   2   1    8.52    1.19
   2  -2  -1   37.08    1.40
   2  -2  -1   36.88    1.60
   2  -2  -1   37.58    1.62
   2  -2  -1   41.18    1.57
  -2   2   1   37.36    1.44
  -2   2   1   38.06    1.53
  -2   2   1   36.59    1.64
  -2   2   1   36.78    1.76
  -2   2   1   36.11    1.61
  -2   2   1   37.87    1.63
   1  -2  -1  168.84    3.60
   1  -2  -1  167.74    3.19
   1  -2  -1  168.34    3.53
  -1   2   1  163.06    3.43
  -1   2   1  160.79    3.59
  -1   2   1  157.93    3.46
  -1   2   1  164.62    3.47
  -1   2   1  171.27    3.55
   0  -2  -1  560.99    8.75
   0  -2  -1  565.00    8.38
   0  -2  -1  544.10    9.43
   0  -2  -1  559.90    8.79
   0  -2  -1  554.12    9.01
   0  -2  -1  564.85    8.17
   0  -2  -1  560.56    8.66
   0   2   1  551.16    8.71
   0   2   1  552.71    8.79
   0   2   1  558.48    8.36
   0   2   1  562.11    9.10
  -1  -2  -1  777.49   12.93
  -1  -2  -1  784.14   12.47
  -1  -2  -1  805.59   12.25
  -1  -2  -1  760.50   12.80
  -1  -2  -1  779.08   11.97
   1   2   1  780.90   12.92
   1   2   1  791.24   11.95
   1   2   1  779.03   12.60
  -2  -2  -1  289.26    5.30
  -2  -2  -1  279.34    6.52
  -2  -2  -1  284.01    5.63
  -2  -2  -1  288.79    5.66
  -2  -2  -1  280.05    6.38
  -2  -2  -1  279.50    4.39
  -2  -2  -1  278.54    6.10
  -2  -2  -1  295.18    6.46
   2   2   1  289.81    5.69
   2   2   1  278.11    5.51
   2   2   1  280.08    6.70
   2   2   1  285.24    6.53
  -3  -2  -1   36.00    1.20
  -3  -2  -1   39.08    1.90
  -3  -2  -1   36.15    1.71
  -3  -2  -1   35.02    1.13
  -3  -2  -1   42.06    1.83
  -3  -2  -1   38.50    2.20
  -3  -2  -1   36.84    2.32
   3   2   1   38.51    1.78
   3   2   1   39.07    2.54
   3   2   1   34.22    2.16
   3   2   1   36.61    2.41
  -4  -2  -1   31.44    2.35
  -4  -2  -1   28.74    1.81
  -4  -2  -1   29.93    1.68
  -4  -2  -1   31.71    1.44
  -4  -2  -1   31.21    1.26
  -4  -2  -1   32.24    1.83
  -4  -2  -1   31.79    2.16
  -4  -2  -1   30.75    1.32
   4   2   1   31.02    2.89
   4   2   1   32.02    2.53
   4   2   1   34.82    2.38
  -5  -2  -1   11.04    0.87
  -5  -2  -1   11.39    1.00
  -5  -2  -1   11.06    0.80
  -5  -2  -1   10.70    1.38
  -5  -2  -1   10.23    1.51
  -5  -2  -1   14.75    1.97
   5   2   1   10.00    1.90
   5   2   1    9.55    2.03
  -6  -2  -1   79.44    3.66
  -6  -2  -1   82.26    2.78
  -6  -2  -1   81.23    2.87
  -6  -2  -1   85.25    3.62
   6   2   1   83.03    4.41
   6   2   1   83.64    5.00
   6   2   1   81.31    4.93
  -7  -2  -1   -0.52    0.41
  -7  -2  -1    0.48    0.56
  -7  -2  -1    0.92    0.78
  -7  -2  -1    2.65    1.03
   7   2   1   -0.60    0.92
   7   2   1   -1.28    1.24
   7   2   1    0.98    1.17
  -8  -2  -1    1.24    1.08
  -8  -2  -1    0.22    0.67
  -8  -2  -1   -0.25    0.58
   8   2   1    1.84    1.50
   8   2   1    1.40    1.58
   9  -3  -1    3.18    1.92
   9  -3  -1    3.88    1.62
   9  -3  -1    8.05    2.26
   9  -3  -1    6.19    1.74
  -9   3   1    5.34    1.51
  -9   3   1    5.04    1.60
  -9   3   1    4.94    0.90
   8  -3  -1    0.26    1.12
   8  -3  -1   -0.14    1.20
   8  -3  -1   -0.33    0.80
   8  -3  -1   -0.80    0.80
  -8   3   1   -0.30    0.99
  -8   3   1    0.03    0.52
   7  -3  -1    3.25    1.17
   7  -3  -1    0.96    0.85
   7  -3  -1    2.64    0.94
   7  -3  -1    3.79    1.38
  -7   3   1    1.63    0.74
  -7   3   1    1.70    0.95
  -7   3   1    2.04    1.00
  -7   3   1    2.59    0.76
   6  -3  -1   23.86    1.07
   6  -3  -1   26.64    2.38
   6  -3  -1   22.85    2.31
  -6   3   1   29.95    2.25
  -6   3   1   29.71    2.38
  -6   3   1   28.23    2.35
   5  -3  -1    1.41    0.76
   5  -3  -1    3.49    0.54
   5  -3  -1    2.82    0.99
   5  -3  -1    2.63    0.94
  -5   3   1    2.75    0.93
  -5   3   1    2.13    0.96
   4  -3  -1  109.19    3.76
   4  -3  -1  110.51    4.25
   4  -3  -1  111.01    3.65
   4  -3  -1  109.41    3.74
  -4   3   1  106.57    3.82
  -4   3   1  111.27    3.58
  -4   3   1  111.99    3.78
  -4   3   1  117.02    3.95
  -4   3   1  113.25    3.33
  -4   3   1  113.20    3.83
   3  -3  -1  183.89    4.78
   3  -3  -1  183.86    4.73
   3  -3  -1  175.96    4.43
   3  -3  -1  182.89    4.18
  -3   3   1  178.61    4.37
  -3   3   1  176.95    4.67
  -3   3   1  191.65    4.70
  -3   3   1  181.58    4.19
  -3   3   1  189.44    4.91
  -3   3   1  180.71    4.69
   2  -3  -1    6.22    0.89
   2  -3  -1    7.13    1.02
   2  -3  -1    6.46    0.86
   2  -3  -1    5.77    0.57
   2  -3  -1    6.11    0.97
  -2   3   1    6.48    1.00
  -2   3   1    6.63    0.94
  -2   3   1    6.98    0.93
  -2   3   1    7.15    0.97
  -2   3   1    5.74    0.97
   1  -3  -1    0.68    0.41
   1  -3  -1    0.64    0.36
   1  -3  -1    1.37    0.42
   1  -3  -1   -0.43    0.36
  -1   3   1    0.75    0.38
  -1   3   1    0.36    0.37
  -1   3   1    0.15    0.43
  -1   3   1    0.62    0.34
   0  -3  -1    0.99    0.64
   0  -3  -1    1.92    0.46
   0  -3  -1    2.15    0.62
   0  -3  -1    1.97    0.44
   0  -3  -1    1.98    0.61
   0  -3  -1    1.23    0.45
   0  -3  -1    2.73    0.56
   0  -3  -1    0.86    0.34
   0   3   1    1.05    0.54
   0   3   1    1.66    0.66
   0   3   1    2.59    0.60
   0   3   1    1.52    0.57
   0   3   1    1.91    0.45
  -1  -3  -1    3.25    0.73
  -1  -3  -1    2.74    0.80
  -1  -3  -1    4.01    0.83
  -1  -3  -1    2.55    0.85
  -1  -3  -1    3.90    0.83
  -1  -3  -1    2.17    0.40
  -1  -3  -1    3.41    0.47
   1   3   1    3.44    0.80
   1   3   1    2.39    0.83
   1   3   1    2.14    0.72
   1   3   1    2.41    0.66
  -2  -3  -1   20.58    1.63
  -2  -3  -1   21.79    1.55
  -2  -3  -1   20.98    0.70
  -2  -3  -1   20.04    1.74
  -2  -3  -1   24.22    1.93
  -2  -3  -1   21.75    1.43
  -2  -3  -1   22.10    1.48
  -2  -3  -1   20.80    0.71
   2   3   1   21.50    1.84
   2   3   1   20.72    1.70
   2   3   1   19.80    1.38
   2   3   1   25.62    1.88
   2   3   1   20.68    1.48
  -3  -3  -1  172.75    5.41
  -3  -3  -1  169.22    4.64
  -3  -3  -1  175.15    5.57
  -3  -3  -1  175.37    4.76
  -3  -3  -1  178.83    2.91
  -3  -3  -1  182.82    5.28
  -3  -3  -1  182.98    4.42
  -3  -3  -1  171.28    2.94
   3   3   1  178.09    5.62
   3   3   1  183.53    4.80
   3   3   1  181.35    5.79
   3   3   1  174.38    5.82
   3   3   1  173.81    4.66
  -4  -3  -1   61.89    2.37
  -4  -3  -1   61.00    2.91
  -4  -3  -1   57.43    1.59
  -4  -3  -1   61.57    1.53
  -4  -3  -1   62.36    3.08
  -4  -3  -1   59.08    2.57
  -4  -3  -1   59.86    3.29
   4   3   1   65.04    3.77
   4   3   1   64.33    2.76
   4   3   1   53.29    4.04
  -5  -3  -1   40.10    2.33
  -5  -3  -1   39.10    1.41
  -5  -3  -1   37.21    1.47
  -5  -3  -1   39.63    1.88
  -5  -3  -1   36.97    2.26
  -5  -3  -1   35.35    2.79
   5   3   1   35.03    3.14
   5   3   1   35.80    3.14
   5   3   1   36.06    2.88
  -6  -3  -1   -0.17    1.00
  -6  -3  -1   -0.61    0.33
  -6  -3  -1   -0.32    0.41
  -6  -3  -1    3.15    1.06
  -6  -3  -1   -0.10    0.31
  -6  -3  -1    1.09    0.40
   6   3   1   -0.58    0.81
   6   3   1    0.50    1.01
   6   3   1    0.13    0.84
  -7  -3  -1    3.26    0.72
  -7  -3  -1    4.94    1.26
  -7  -3  -1    3.73    0.71
   7   3   1    4.32    1.88
   7   3   1    3.74    1.75
   7   3   1    0.44    1.12
  -8  -3  -1   -0.86    0.79
  -8  -3  -1    0.97    0.64
  -8  -3  -1   -0.15    1.26
   8   3   1    0.38    1.64
   8   3   1    2.36    1.31
   9  -4  -1    1.74    1.24
   9  -4  -1    1.46    1.21
   9  -4  -1    3.29    1.73
   9  -4  -1    1.09    1.42
  -9   4   1    2.28    1.08
  -9   4   1    1.76    0.80
  -9   4   1    1.66    1.30
   8  -4  -1    0.09    0.70
   8  -4  -1   -1.04    0.98
   8  -4  -1    2.90    1.37
   8  -4  -1    1.29    1.01
  -8   4   1    0.19    0.70
  -8   4   1    0.13    0.59
  -8   4   1    1.94    1.16
   7  -4  -1   15.59    2.16
   7  -4  -1   12.37    2.11
   7  -4  -1   11.91    0.82
   7  -4  -1   13.75    2.41
  -7   4   1   15.85    2.29
  -7   4   1   12.98    1.30
  -7   4   1   12.31    2.04
  -7   4   1   16.29    2.26
   6  -4  -1   28.74    2.40
   6  -4  -1   26.73    2.60
   6  -4  -1   24.85    2.08
   6  -4  -1   26.94    1.32
  -6   4   1   27.28    2.30
  -6   4   1   28.79    2.39
  -6   4   1   31.73    2.44
  -6   4   1   29.17    1.85
   5  -4  -1   40.20    1.75
   5  -4  -1   39.52    2.51
   5  -4  -1   41.92    2.92
  -5   4   1   41.21    2.12
  -5   4   1   38.08    2.51
   4  -4  -1   53.56    2.58
   4  -4  -1   56.22    2.36
   4  -4  -1   52.39    2.73
  -4   4   1   61.19    3.45
  -4   4   1   54.57    2.74
  -4   4   1   59.76    2.81
  -4   4   1   57.14    2.37
  -4   4   1   59.43    2.53
   3  -4  -1   40.41    1.58
   3  -4  -1   38.09    1.92
   3  -4  -1   32.11    1.98
   3  -4  -1   41.33    2.25
  -3   4   1   37.02    2.19
  -3   4   1   37.51    2.03
  -3   4   1   37.46    2.00
  -3   4   1   35.79    2.09
  -3   4   1   36.05    1.97
   2  -4  -1   19.47    1.41
   2  -4  -1   20.13    1.35
   2  -4  -1   21.74    1.35
   2  -4  -1   22.89    1.53
   2  -4  -1   23.19    0.86
   2  -4  -1   18.66    1.46
  -2   4   1   26.40    1.72
  -2   4   1   25.06    1.57
  -2   4   1   21.84    1.56
  -2   4   1   24.36    1.47
  -2   4   1   22.37    1.45
   1  -4  -1   23.19    0.94
   1  -4  -1   23.28    1.42
   1  -4  -1   23.40    1.61
   1  -4  -1   26.33    1.37
   1  -4  -1   22.73    1.40
   1  -4  -1   25.76    1.36
  -1   4   1   24.69    1.35
  -1   4   1   25.40    1.42
  -1   4   1   24.04    1.36
  -1   4   1   22.37    1.57
  -1   4   1   22.43    1.58
  -1   4   1   23.74    1.43
   0  -4  -1   71.73    2.26
   0  -4  -1   68.36    2.23
   0  -4  -1   76.65    3.26
   0  -4  -1   72.61    2.86
   0  -4  -1   74.08    2.27
   0  -4  -1   72.02    2.25
   0  -4  -1   73.56    2.79
   0  -4  -1   78.45    2.46
   0   4   1   73.89    2.20
   0   4   1   72.27    2.34
   0   4   1   77.61    2.88
   0   4   1   74.89    2.19
   0   4   1   71.47    2.92
  -1  -4  -1   98.29    3.28
  -1  -4  -1   87.50    3.29
  -1  -4  -1   88.53    2.62
  -1  -4  -1   96.94    3.16
  -1  -4  -1   96.36    3.00
  -1  -4  -1   94.44    2.35
  -1  -4  -1   94.05    2.33
  -1  -4  -1   93.22    3.67
  -1  -4  -1   95.67    3.77
   1   4   1   91.94    1.79
   1   4   1   96.22    3.27
   1   4   1  103.02    3.60
   1   4   1   88.69    1.76
  -2  -4  -1  213.77    6.19
  -2  -4  -1  203.52    5.29
  -2  -4  -1  207.10    3.62
  -2  -4  -1  207.56    5.60
  -2  -4  -1  213.18    3.86
  -2  -4  -1  216.78    5.52
   2   4   1  222.53    5.48
   2   4   1  208.74    6.27
   2   4   1  207.36    5.60
  -3  -4  -1   53.07    2.67
  -3  -4  -1   51.01    0.97
  -3  -4  -1   54.23    2.81
  -3  -4  -1   54.36    3.57
  -3  -4  -1   53.79    1.00
  -3  -4  -1   51.84    2.63
  -3  -4  -1   59.74    3.26
  -3  -4  -1   52.06    2.24
   3   4   1   56.73    2.77
   3   4   1   46.45    3.21
   3   4   1   60.33    2.75
  -4  -4  -1   -0.16    0.53
  -4  -4  -1    0.50    0.51
  -4  -4  -1    0.16    0.52
   4   4   1    1.52    1.08
   4   4   1    0.03    0.66
  -5  -4  -1   18.67    1.52
  -5  -4  -1   21.97    2.27
  -5  -4  -1   22.07    2.12
   5   4   1   19.32    2.69
   5   4   1   19.35    2.93
  -6  -4  -1    0.98    0.89
  -6  -4  -1    2.34    0.29
  -6  -4  -1    1.06    1.18
  -6  -4  -1    1.33    0.70
   6   4   1    3.24    1.77
   6   4   1    1.90    1.20
   6   4   1    3.36    1.77
  -7  -4  -1   -0.30    0.84
  -7  -4  -1    1.78    0.65
  -7  -4  -1    0.68    0.20
  -7  -4  -1    1.57    0.99
   7   4   1   -0.49    1.39
   7   4   1   -0.82    1.27
   9  -5  -1   -2.54    1.16
   9  -5  -1   -0.80    1.36
   9  -5  -1   -1.84    1.52
   9  -5  -1   -2.26    0.95
  -9   5   1    0.61    1.12
  -9   5   1    0.37    1.13
  -9   5   1   -0.25    1.05
   8  -5  -1   -1.80    0.92
   8  -5  -1    1.52    1.32
   8  -5  -1   -0.53    0.94
  -8   5   1    1.28    0.77
  -8   5   1    1.55    0.95
  -8   5   1   -0.70    0.58
   7  -5  -1   42.20    3.00
   7  -5  -1   41.87    1.97
   7  -5  -1   42.20    3.52
   7  -5  -1   42.36    1.87
  -7   5   1   41.50    3.02
  -7   5   1   41.83    3.32
  -7   5   1   43.01    2.48
   6  -5  -1   51.14    2.93
   6  -5  -1   55.05    3.22
   6  -5  -1   42.37    3.24
   6  -5  -1   47.78    2.11
  -6   5   1   50.36    3.17
  -6   5   1   51.36    2.67
  -6   5   1   45.88    3.20
   5  -5  -1    0.24    0.61
   5  -5  -1   -0.90    0.48
   5  -5  -1    0.46    0.61
  -5   5   1    0.41    0.65
  -5   5   1   -0.40    0.76
  -5   5   1   -0.29    0.44
  -5   5   1    0.42    0.67
   4  -5  -1   33.73    1.68
   4  -5  -1   33.96    2.31
   4  -5  -1   36.62    2.43
  -4   5   1   29.25    2.11
  -4   5   1   37.33    2.48
  -4   5   1   34.80    2.22
  -4   5   1   40.74    2.32
   3  -5  -1   11.94    1.58
   3  -5  -1   10.09    1.36
   3  -5  -1    9.43    0.68
   3  -5  -1   14.12    1.72
  -3   5   1   10.01    1.37
  -3   5   1    9.90    1.43
  -3   5   1   12.30    1.59
  -3   5   1   11.71    1.55
  -3   5   1   11.21    1.59
   2  -5  -1   12.37    1.11
   2  -5  -1   12.60    1.23
   2  -5  -1   11.86    1.06
   2  -5  -1   10.67    1.37
   2  -5  -1   11.24    1.18
  -2   5   1    9.24    1.41
  -2   5   1   11.99    1.12
  -2   5   1   15.06    1.49
  -2   5   1   12.70    1.22
  -2   5   1   14.48    1.29
  -2   5   1   12.22    1.54
   1  -5  -1   54.92    2.64
   1  -5  -1   58.02    1.54
   1  -5  -1   57.82    2.22
   1  -5  -1   58.37    2.15
   1  -5  -1   63.43    2.48
   1  -5  -1   53.82    2.32
  -1   5   1   53.54    2.13
  -1   5   1   59.01    2.34
  -1   5   1   57.58    2.82
  -1   5   1   53.49    2.24
  -1   5   1   61.24    2.86
  -1   5   1   59.02    2.39
   0  -5  -1   28.89    1.52
   0  -5  -1   27.56    1.89
   0  -5  -1   28.73    2.17
   0  -5  -1   31.01    1.60
   0  -5  -1   29.11    1.45
   0  -5  -1   28.00    1.51
   0  -5  -1   27.13    1.48
   0   5   1   26.36    1.46
   0   5   1   29.99    2.01
   0   5   1   28.42    1.41
   0   5   1   27.50    1.41
   0   5   1   27.82    1.94
  -1  -5  -1   23.47    1.41
  -1  -5  -1   24.37    1.57
  -1  -5  -1   26.62    1.29
  -1  -5  -1   27.19    2.18
  -1  -5  -1   26.23    1.94
  -1  -5  -1   24.26    1.25
  -1  -5  -1   25.92    1.68
  -1  -5  -1   30.73    2.30
   1   5   1   23.91    0.84
   1   5   1   26.53    0.87
   1   5   1   25.03    1.93
  -2  -5  -1   56.62    2.65
  -2  -5  -1   54.43    2.79
  -2  -5  -1   53.82    3.11
  -2  -5  -1   53.98    1.61
   2   5   1   50.97    2.80
   2   5   1   54.79    2.75
   2   5   1   51.11    2.88
  -3  -5  -1  197.87    5.80
  -3  -5  -1  192.20    2.98
  -3  -5  -1  198.72    5.04
   3   5   1  199.05    6.05
   3   5   1  208.17    5.98
   3   5   1  195.61    6.63
  -4  -5  -1    2.22    0.87
  -4  -5  -1    2.52    0.99
  -4  -5  -1    1.20    0.88
   4   5   1    1.11    0.56
   4   5   1    2.83    1.00
   4   5   1    2.17    1.36
  -5  -5  -1    3.04    0.95
  -5  -5  -1    5.36    1.19
  -5  -5  -1    4.76    1.39
   5   5   1    2.62    1.76
   5   5   1    3.54    1.32
   5   5   1    3.38    1.36
  -6  -5  -1   14.81    1.97
  -6  -5  -1   22.02    3.04
   6   5   1   23.94    3.78
   6   5   1   15.83    3.02
   6   5   1   16.54    2.57
  -7  -5  -1    2.66    1.63
  -7  -5  -1    2.37    1.15
   7   5   1    1.97    1.32
   7   5   1    5.02    2.20
   7   5   1    3.54    1.93
   9  -6  -1    0.68    1.66
   9  -6  -1    0.64    1.32
   9  -6  -1    3.91    1.96
   9  -6  -1    0.10    1.45
  -9   6   1    1.20    1.52
  -9   6   1    3.57    1.09
  -9   6   1    2.22    1.60
   8  -6  -1    1.12    0.90
   8  -6  -1    0.33    1.32
   8  -6  -1   -0.61    0.59
   8  -6  -1   -0.71    1.06
   8  -6  -1   -0.65    1.09
  -8   6   1    1.62    1.19
  -8   6   1    0.33    0.77
  -8   6   1    0.69    1.06
   7  -6  -1    0.35    1.06
   7  -6  -1    0.87    0.74
   7  -6  -1   -0.83    0.62
   7  -6  -1    1.43    1.10
  -7   6   1    1.89    1.21
  -7   6   1    1.11    0.75
  -7   6   1    1.06    1.15
   6  -6  -1    4.55    1.14
   6  -6  -1    3.66    1.40
  -6   6   1    1.37    0.83
  -6   6   1    2.55    1.06
  -6   6   1    4.97    1.47
   5  -6  -1    5.14    0.97
   5  -6  -1    4.43    1.33
  -5   6   1    5.56    1.39
  -5   6   1    6.82    1.46
  -5   6   1    5.68    1.47
   4  -6  -1    4.04    1.11
   4  -6  -1    4.77    0.71
  -4   6   1    3.79    1.05
  -4   6   1    5.08    1.64
  -4   6   1    3.16    1.01
  -4   6   1    1.77    1.02
   3  -6  -1   44.15    2.56
   3  -6  -1   43.15    2.30
   3  -6  -1   45.81    2.65
  -3   6   1   44.16    2.65
  -3   6   1   42.60    2.48
  -3   6   1   46.70    2.75
  -3   6   1   44.56    2.30
   2  -6  -1   11.54    1.87
   2  -6  -1   10.80    1.29
   2  -6  -1    8.48    1.38
  -2   6   1   11.95    1.57
  -2   6   1    9.33    1.63
  -2   6   1   11.86    1.77
  -2   6   1   11.71    1.56
  -2   6   1    8.96    1.18
   1  -6  -1    0.29    0.38
   1  -6  -1    0.24    0.51
   1  -6  -1   -0.04    0.42
   1  -6  -1    0.13    0.23
  -1   6   1   -0.43    0.24
  -1   6   1    1.04    0.48
   0  -6  -1    4.06    0.80
   0  -6  -1    2.61    0.72
   0  -6  -1    3.42    0.70
   0  -6  -1    2.10    0.78
   0  -6  -1    4.17    0.85
   0   6   1    4.18    1.26
   0   6   1    2.24    0.88
   0   6   1    3.60    0.78
  -1  -6  -1    0.64    0.55
  -1  -6  -1   -0.02    0.35
  -1  -6  -1    0.26    0.45
  -1  -6  -1    0.31    0.35
  -1  -6  -1   -0.03    0.78
   1   6   1    0.24    0.24
   1   6   1    0.15    0.61
   1   6   1    0.08    0.71
  -2  -6  -1   30.40    1.35
  -2  -6  -1   30.48    1.88
  -2  -6  -1   27.44    1.27
  -2  -6  -1   30.61    2.01
   2   6   1   31.25    2.37
   2   6   1   29.69    2.26
  -3  -6  -1    1.45    0.71
  -3  -6  -1    0.55    0.85
  -3  -6  -1    1.51    0.27
   3   6   1    1.46    0.96
   3   6   1    2.02    0.91
  -4  -6  -1    0.40    0.91
  -4  -6  -1    3.04    0.95
  -4  -6  -1    2.16    1.05
   4   6   1    1.46    0.94
   4   6   1    2.83    1.04
  -5  -6  -1   14.13    1.83
  -5  -6  -1   13.00    1.88
  -5  -6  -1   15.91    2.45
  -6  -6  -1    0.89    0.84
  -6  -6  -1   -0.44    0.82
  -6  -6  -1    0.03    1.15
   8  -7  -1   15.27    3.03
   8  -7  -1   12.10    2.43
   8  -7  -1   10.73    1.98
  -8   7   1   15.22    2.58
  -8   7   1   13.04    1.88
  -8   7   1   11.77    2.48
   7  -7  -1   26.04    2.20
   7  -7  -1   26.78    4.30
   7  -7  -1   26.60    2.10
   7  -7  -1   24.89    2.56
  -7   7   1   30.24    3.01
  -7   7   1   28.52    2.77
  -7   7   1   24.21    2.19
   6  -7  -1   -1.15    1.06
   6  -7  -1    0.52    0.94
  -6   7   1   -0.21    0.62
  -6   7   1    0.61    1.06
  -6   7   1   -0.39    1.05
   5  -7  -1    9.85    1.82
  -5   7   1    9.63    1.84
  -5   7   1    7.28    1.71
  -5   7   1   10.95    1.77
   4  -7  -1    1.24    1.05
   4  -7  -1    1.46    0.94
  -4   7   1    1.57    0.85
  -4   7   1    2.60    1.12
  -4   7   1    3.55    1.15
  -4   7   1    3.32    1.08
   3  -7  -1    1.34    0.86
   3  -7  -1    0.71    0.68
  -3   7   1    1.01    0.71
  -3   7   1    0.19    0.73
  -3   7   1    2.18    0.92
  -3   7   1    0.37    0.59
   2  -7  -1   23.19    1.55
   2  -7  -1   24.32    1.98
   2  -7  -1   21.65    1.70
   2  -7  -1   24.05    1.91
  -2   7   1   21.37    2.14
  -2   7   1   24.03    2.30
  -2   7   1   22.44    1.83
  -2   7   1   18.84    1.79
  -2   7   1   22.29    1.60
   1  -7  -1    5.24    1.21
   1  -7  -1    4.87    0.93
   1  -7  -1    2.70    0.88
   1  -7  -1    4.49    0.38
   1  -7  -1    4.09    0.94
  -1   7   1    5.15    1.40
  -1   7   1    2.97    0.83
  -1   7   1    3.04    1.16
   0  -7  -1   10.50    1.31
   0  -7  -1    9.18    1.27
   0  -7  -1    8.63    1.30
   0  -7  -1   11.32    1.13
   0   7   1   10.76    1.82
   0   7   1   10.51    1.21
   0   7   1   14.12    2.03
  -1  -7  -1    0.41    0.38
  -1  -7  -1    1.23    0.51
  -1  -7  -1   -0.15    0.48
   1   7   1   -0.67    0.58
   1   7   1   -0.47    0.59
  -2  -7  -1   24.08    1.77
  -2  -7  -1   21.06    1.25
  -2  -7  -1   21.16    1.76
   2   7   1   24.65    2.35
   2   7   1   24.96    2.28
  -3  -7  -1   33.63    1.07
  -3  -7  -1   27.84    2.42
  -3  -7  -1   33.69    2.45
  -3  -7  -1   31.23    2.54
  -3  -7  -1   32.64    1.07
  -3  -7  -1   29.31    2.63
   3   7   1   30.97    2.55
   3   7   1   32.02    2.75
  -4  -7  -1   -0.08    0.78
  -4  -7  -1    1.66    0.79
  -4  -7  -1   -0.89    0.80
   4   7   1    0.69    1.04
   4   7   1    0.66    0.90
  -5  -7  -1   13.78    1.81
  -5  -7  -1   14.48    2.34
  -5  -7  -1   11.96    2.00
   8  -8  -1   -0.99    1.16
   8  -8  -1   -0.39    1.01
   8  -8  -1   -0.42    1.10
  -8   8   1   -0.23    1.08
  -8   8   1   -1.13    0.99
  -8   8   1   -0.53    0.94
   7  -8  -1    2.05    0.95
   7  -8  -1    3.45    1.57
   7  -8  -1    2.88    1.44
  -7   8   1    2.99    1.33
  -7   8   1    1.42    1.23
  -7   8   1    2.64    1.49
   6  -8  -1   11.03    1.91
   6  -8  -1    8.92    2.08
  -6   8   1    7.72    1.85
  -6   8   1   11.92    2.12
  -6   8   1   10.49    2.07
   5  -8  -1    7.71    1.74
  -5   8   1    5.51    2.04
  -5   8   1    6.30    1.69
  -5   8   1    7.25    1.61
  -5   8   1    7.83    1.86
   4  -8  -1    7.37    1.74
   4  -8  -1    1.52    1.16
  -4   8   1    1.57    1.19
  -4   8   1    5.40    1.67
  -4   8   1    2.56    1.11
  -4   8   1    5.15    1.29
  -4   8   1    4.39    1.42
   3  -8  -1   12.09    2.02
   3  -8  -1   12.17    1.98
  -3   8   1   12.02    1.84
  -3   8   1   10.49    1.50
  -3   8   1   11.47    2.16
  -3   8   1   11.65    2.04
  -3   8   1   14.89    2.25
   2  -8  -1    4.40    1.17
   2  -8  -1   -0.37    0.56
  -2   8   1    0.89    0.69
  -2   8   1    0.46    0.64
  -2   8   1   -0.47    0.64
  -2   8   1   -0.33    0.65
  -2   8   1    0.47    0.85
   1  -8  -1    1.80    0.63
   1  -8  -1    1.57    0.91
   1  -8  -1    2.87    0.81
  -1   8   1    0.76    0.99
  -1   8   1    2.91    1.11
  -1   8   1    2.39    1.13
  -1   8   1    1.64    0.65
   0  -8  -1    2.55    0.76
   0  -8  -1    3.68    1.02
   0  -8  -1    2.36    0.66
   0  -8  -1    2.85    0.77
   0   8   1    1.61    1.03
   0   8   1    3.56    1.30
   0   8   1    2.80    0.70
  -1  -8  -1    0.99    0.75
  -1  -8  -1    0.44    0.58
   1   8   1    0.73    0.94
   1   8   1    1.97    1.08
  -2  -8  -1    0.07    0.44
  -2  -8  -1    1.74    1.00
  -2  -8  -1    1.55    0.84
   2   8   1    3.24    1.27
   2   8   1    0.11    0.91
  -3  -8  -1    4.80    1.24
  -3  -8  -1    4.39    0.51
  -3  -8  -1    4.98    1.17
  -3  -8  -1    7.77    1.69
   3   8   1    4.21    1.52
   3   8   1    3.12    1.43
  -4  -8  -1    5.51    1.72
  -4  -8  -1    2.88    1.24
  -4  -8  -1    4.55    1.11
   4   8   1    6.62    1.86
   7  -9  -1    9.55    1.78
   7  -9  -1    8.20    1.93
   7  -9  -1   11.13    2.48
  -7   9   1    8.83    2.09
  -7   9   1    8.82    1.98
  -7   9   1   13.93    2.57
   6  -9  -1    0.90    0.75
   6  -9  -1    0.03    1.03
  -6   9   1    0.56    1.06
  -6   9   1    0.41    1.08
  -6   9   1    1.18    1.36
  -6   9   1   -0.37    0.83
   5  -9  -1    3.11    1.29
  -5   9   1    3.58    1.32
  -5   9   1    0.21    0.93
  -5   9   1    2.50    1.13
  -4   9   1   10.12    2.57
  -4   9   1    5.71    1.38
  -4   9   1    4.83    1.60
  -4   9   1    6.89    1.75
  -4   9   1   12.86    2.10
   3  -9  -1   20.93    2.15
   3  -9  -1   13.25    2.15
  -3   9   1   17.36    2.22
  -3   9   1   14.64    2.50
  -3   9   1   21.12    2.69
  -3   9   1   17.08    2.59
  -3   9   1   17.50    1.71
   2  -9  -1   11.05    1.70
   2  -9  -1   10.50    1.76
  -2   9   1    8.66    1.56
  -2   9   1    7.56    1.87
  -2   9   1    9.18    1.32
   1  -9  -1    3.10    1.13
   1  -9  -1    2.68    0.73
  -1   9   1    4.83    1.54
  -1   9   1    3.61    1.28
   0  -9  -1   -0.38    0.61
   0  -9  -1    0.80    0.63
   0  -9  -1    1.02    0.60
   0   9   1    0.30    0.88
   0   9   1    0.50    0.62
   0   9   1   -0.20    0.85
  -1  -9  -1    2.14    0.71
  -1  -9  -1    1.69    0.73
  -1  -9  -1    2.52    1.29
  -1  -9  -1    2.41    1.01
   1   9   1    2.89    1.38
   1   9   1    3.44    1.24
  -2  -9  -1    0.70    0.85
  -2  -9  -1    3.07    0.77
  -2  -9  -1    3.46    0.82
  -2  -9  -1    2.59    1.41
   2   9   1    1.41    1.01
   2   9   1    2.68    1.32
  -3  -9  -1    0.40    1.02
  -3  -9  -1    0.05    0.29
  -3  -9  -1    0.22    0.28
  -3  -9  -1   -0.79    0.71
   3   9   1   -0.69    0.95
   3   9   1    2.05    1.25
   6 -10  -1   -0.49    1.07
   6 -10  -1   -0.71    1.00
  -6  10   1    3.56    1.70
  -6  10   1    3.33    1.54
  -6  10   1    1.45    1.57
  -6  10   1    1.57    1.60
   5 -10  -1    2.30    1.13
   5 -10  -1    1.78    1.25
  -5  10   1    1.78    1.14
  -5  10   1    1.52    1.21
  -5  10   1    0.03    0.98
   4 -10  -1   11.06    2.04
  -4  10   1   13.66    2.08
  -4  10   1   11.22    2.26
  -4  10   1    8.50    2.14
  -4  10   1   10.30    2.07
   3 -10  -1    3.07    1.30
  -3  10   1    2.02    1.25
  -3  10   1    2.88    1.48
   2 -10  -1    0.08    0.90
  -2  10   1    0.56    0.80
  -2  10   1   -0.91    0.71
  -2  10   1   -0.48    1.01
   1 -10  -1    0.32    0.91
   1 -10  -1   -0.07    0.89
  -1  10   1    0.64    1.07
  -1  10   1    0.17    0.83
  -1  10   1    1.62    1.76
   0 -10  -1    1.95    0.81
   0 -10  -1    0.21    1.10
   0 -10  -1    2.56    0.93
   0  10   1    1.47    1.18
   0  10   1    2.30    1.34
  -1 -10  -1    0.93    1.23
  -1 -10  -1    1.57    0.77
  -1 -10  -1    0.24    0.60
   1  10   1    0.53    1.08
   1  10   1    1.16    1.46
  -2 -10  -1    3.50    0.86
  -2 -10  -1    5.63    1.76
  -2 -10  -1    4.91    0.93
   2  10   1    8.72    2.28
   2  10   1    2.37    1.40
   4 -11  -1    2.81    1.25
   4 -11  -1   -1.39    1.11
  -4  11   1   -1.62    2.04
  -4  11   1    2.45    1.51
   3 -11  -1    3.07    1.39
   3 -11  -1    4.73    1.27
  -3  11   1    3.59    1.43
  -3  11   1    1.28    1.42
   2 -11  -1    0.81    1.24
   2 -11  -1    1.32    1.15
  -2  11   1    2.86    1.53
  -2  11   1   -0.49    1.23
   1 -11  -1   -0.43    0.96
   1 -11  -1    1.54    1.17
  -1  11   1    1.42    1.12
  -1  11   1    2.69    1.31
   0 -11  -1   -0.91    1.13
   0 -11  -1    2.98    1.05
   0  11   1    0.53    1.32
   0  11   1    1.57    1.61
   1  11  -2    3.87    1.36
   1  11  -2    3.35    1.71
  -1 -11   2    1.09    1.66
  -1 -11   2    3.50    0.98
   0  11  -2    1.00    0.95
   0  11  -2    0.65    1.28
   0 -11   2   -0.74    1.02
   0 -11   2    1.36    1.01
  -1  11  -2   10.62    2.35
  -1  11  -2    9.15    2.01
   1 -11   2    7.35    1.71
  -2  11  -2    0.66    1.21
  -2  11  -2    1.68    1.52
  -2  11  -2   -0.28    1.09
   2 -11   2    0.33    0.87
   2 -11   2    0.91    0.96
  -3  11  -2    2.10    1.51
  -3  11  -2    2.58    1.42
  -3  11  -2    1.99    1.20
   3 -11   2    2.73    1.22
   3 -11   2    0.28    0.93
  -4  11  -2    1.78    1.32
  -4  11  -2   -2.41    1.63
  -4  11  -2    1.35    1.24
   4 -11   2   -0.76    0.99
   4 -11   2    1.70    1.11
   4 -11   2    0.86    1.33
  -5  11  -2    0.80    1.45
  -5  11  -2    1.82    1.72
  -5  11  -2    0.08    1.62
  -5  11  -2    1.96    1.37
   5 -11   2    0.13    1.31
   5 -11   2    2.17    1.40
   5 -11   2    1.04    1.32
   3  10  -2    0.73    1.07
  -3 -10   2    0.09    0.49
  -3 -10   2   -1.34    0.88
   2  10  -2    0.41    1.15
  -2 -10   2    0.49    0.68
  -2 -10   2   -1.16    0.72
  -2 -10   2    1.56    0.71
   1  10  -2    0.78    0.95
   1  10  -2    1.65    1.29
  -1 -10   2    1.02    0.79
  -1 -10   2    2.25    0.87
  -1 -10   2    2.46    1.11
   0  10  -2   37.69    3.39
   0  10  -2   45.77    3.61
   0 -10   2   38.69    2.72
   0 -10   2   41.09    3.36
   0 -10   2   33.84    2.52
  -1  10  -2    1.11    1.09
  -1  10  -2    3.43    1.45
  -1  10  -2    5.27    1.54
   1 -10   2    4.77    1.19
   1 -10   2    3.16    1.29
   1 -10   2    3.18    1.14
  -2  10  -2    2.06    1.10
  -2  10  -2    1.83    1.20
   2 -10   2    1.34    0.88
   2 -10   2    0.50    1.04
   2 -10   2    0.62    0.89
  -3  10  -2    2.81    1.34
  -3  10  -2    6.45    1.64
  -3  10  -2    1.19    0.93
   3 -10   2    0.85    1.26
   3 -10   2    3.08    1.27
   3 -10   2    2.88    1.32
  -4  10  -2   -0.10    0.86
  -4  10  -2    1.28    0.98
  -4  10  -2    3.37    1.32
  -4  10  -2    2.64    1.25
   4 -10   2    3.29    1.14
   4 -10   2    4.39    1.61
   4 -10   2    2.03    1.09
  -5  10  -2    2.33    1.40
  -5  10  -2    1.17    1.04
  -5  10  -2   -1.88    0.82
  -5  10  -2   -1.06    1.05
   5 -10   2    0.66    1.05
   5 -10   2    0.82    1.21
   5 -10   2    0.57    1.00
  -6  10  -2    0.20    1.25
  -6  10  -2    2.91    1.67
  -6  10  -2    1.66    0.89
  -6  10  -2    0.40    1.10
   6 -10   2    2.22    1.33
   6 -10   2    2.28    1.26
   6 -10   2    0.50    1.29
   4   9  -2    2.28    1.34
   4   9  -2    0.39    1.44
  -4  -9   2    1.25    1.07
  -4  -9   2    0.11    0.72
   3   9  -2    4.27    1.67
   3   9  -2    5.30    1.63
   3   9  -2    2.16    1.34
  -3  -9   2    2.70    1.10
  -3  -9   2    3.26    0.69
  -3  -9   2    3.59    0.71
   2   9  -2    1.24    1.01
  -2  -9   2    0.03    0.53
  -2  -9   2    0.68    0.61
   1   9  -2    3.00    1.38
   1   9  -2    2.43    1.17
  -1  -9   2    4.65    1.05
  -1  -9   2    4.84    1.45
  -1  -9   2    2.26    0.82
  -1  -9   2    4.00    1.34
   0   9  -2   10.61    2.07
   0   9  -2   11.84    2.17
   0  -9   2   12.33    2.22
   0  -9   2    8.90    1.58
   0  -9   2    8.44    1.51
   0  -9   2   13.09    1.73
  -1   9  -2   14.39    2.42
  -1   9  -2   15.43    2.39
   1  -9   2   13.38    1.88
   1  -9   2   17.96    2.52
   1  -9   2   13.81    1.89
  -2   9  -2    3.02    1.20
  -2   9  -2    2.99    1.28
  -2   9  -2    3.93    1.42
   2  -9   2    2.11    0.95
   2  -9   2    2.17    1.06
   2  -9   2    1.49    1.09
  -3   9  -2    3.02    1.43
  -3   9  -2    0.49    0.84
  -3   9  -2    1.51    0.58
  -3   9  -2    1.70    1.10
  -3   9  -2   -0.33    0.70
   3  -9   2    4.35    1.38
   3  -9   2    1.38    1.16
   3  -9   2    0.67    0.80
  -4   9  -2    0.50    0.83
  -4   9  -2    2.07    1.01
  -4   9  -2   -1.43    0.91
  -4   9  -2   -0.02    0.61
   4  -9   2    0.23    0.94
   4  -9   2    1.20    0.77
   4  -9   2    0.71    0.75
  -5   9  -2    8.88    3.21
  -5   9  -2    5.79    1.78
  -5   9  -2   11.35    1.85
  -5   9  -2   10.68    2.23
   5  -9   2   15.02    2.48
   5  -9   2   10.17    1.83
   5  -9   2    7.91    1.78
  -6   9  -2    3.32    1.42
  -6   9  -2    0.67    1.39
  -6   9  -2    2.85    0.97
  -6   9  -2    0.83    1.38
   6  -9   2    1.95    1.32
   6  -9   2    1.44    1.15
  -7   9  -2    1.43    1.18
  -7   9  -2    1.25    1.38
  -7   9  -2   -0.70    0.92
  -7   9  -2    0.79    1.30
   7  -9   2    0.74    1.20
   7  -9   2   -1.76    0.94
   7  -9   2   -1.07    0.99
   5   8  -2    1.66    1.04
   5   8  -2    1.67    1.57
  -5  -8   2    0.75    1.09
  -5  -8   2    1.25    1.12
  -5  -8   2    1.14    1.06
   4   8  -2    0.57    0.98
  -4  -8   2    1.61    1.03
  -4  -8   2    0.08    0.69
   3   8  -2    1.47    1.01
   3   8  -2   -0.04    0.77
   3   8  -2    0.61    0.74
  -3  -8   2   -0.99    0.73
  -3  -8   2   -0.35    0.36
  -3  -8   2    0.76    0.52
  -3  -8   2    0.43    0.50
  -3  -8   2    0.62    0.36
   2   8  -2    4.26    1.47
   2   8  -2    2.79    1.08
   2   8  -2    6.60    1.57
  -2  -8   2    5.01    0.96
  -2  -8   2    3.39    1.17
  -2  -8   2    5.02    1.27
  -2  -8   2    4.17    0.82
   1   8  -2   11.60    2.00
   1   8  -2   10.20    0.96
   1   8  -2   12.08    2.18
  -1  -8   2    8.13    1.25
  -1  -8   2    8.40    1.71
  -1  -8   2   10.56    1.42
   0   8  -2   17.70    1.80
   0   8  -2   24.18    2.33
   0   8  -2   22.16    2.20
   0  -8   2   23.79    2.27
   0  -8   2   19.84    1.70
   0  -8   2   18.20    1.65
   0  -8   2   19.72    1.81
  -1   8  -2   25.12    2.25
  -1   8  -2   21.40    1.84
  -1   8  -2   28.08    2.55
   1  -8   2   26.38    2.26
   1  -8   2   21.76    1.89
   1  -8   2   21.89    1.93
  -2   8  -2    1.29    1.08
  -2   8  -2    4.37    1.36
  -2   8  -2    4.31    1.24
  -2   8  -2    2.78    1.13
   2  -8   2    3.61    1.13
   2  -8   2    2.82    1.09
   2  -8   2    5.69    1.34
  -3   8  -2    2.70    1.20
  -3   8  -2    5.94    1.35
  -3   8  -2    5.77    1.35
  -3   8  -2    4.83    0.86
  -3   8  -2    4.34    1.52
   3  -8   2    2.80    1.19
   3  -8   2    5.30    1.44
   3  -8   2    3.56    1.41
  -4   8  -2   -0.78    0.82
  -4   8  -2   -1.14    0.66
  -4   8  -2    1.81    0.93
  -4   8  -2    0.05    0.63
  -4   8  -2   -0.48    0.59
   4  -8   2    0.21    0.68
   4  -8   2    0.87    0.72
   4  -8   2   -0.04    0.72
  -5   8  -2   -0.60    0.93
  -5   8  -2   -0.60    0.86
  -5   8  -2    1.18    1.30
  -5   8  -2   -0.47    0.55
   5  -8   2    1.78    1.07
   5  -8   2   -0.14    0.50
   5  -8   2   -1.31    0.74
  -6   8  -2    2.16    1.23
  -6   8  -2   -1.28    0.60
  -6   8  -2   -1.31    0.60
  -6   8  -2    0.52    0.85
   6  -8   2   -0.29    0.88
   6  -8   2   -0.49    0.51
   6  -8   2    0.84    0.93
  -7   8  -2    5.34    1.77
  -7   8  -2    7.95    2.25
  -7   8  -2    5.05    1.76
   7  -8   2    6.29    1.85
   7  -8   2    3.65    1.07
   7  -8   2    7.08    1.94
  -8   8  -2    3.44    1.73
  -8   8  -2    5.12    1.86
   8  -8   2    4.38    1.87
   8  -8   2    4.72    1.85
   6   7  -2   11.36    2.88
  -6  -7   2   15.58    2.19
  -6  -7   2   14.55    2.06
   5   7  -2    9.65    2.16
  -5  -7   2   10.69    1.77
  -5  -7   2   15.88    2.13
  -5  -7   2   14.43    2.14
   4   7  -2    3.51    1.30
   4   7  -2    6.56    1.80
  -4  -7   2    5.48    1.30
  -4  -7   2    3.60    1.02
   3   7  -2   28.41    2.48
   3   7  -2   37.68    2.79
   3   7  -2   36.60    2.89
  -3  -7   2   35.19    1.48
  -3  -7   2   27.47    2.20
  -3  -7   2   35.06    2.56
  -3  -7   2   35.32    1.86
  -3  -7   2   36.52    1.52
   2   7  -2    4.90    1.30
   2   7  -2    4.81    1.40
   2   7  -2    3.95    1.25
  -2  -7   2    4.20    1.18
  -2  -7   2    4.20    0.73
  -2  -7   2    6.53    1.52
  -2  -7   2    3.38    0.75
   1   7  -2   15.35    2.24
   1   7  -2   12.72    0.99
   1   7  -2   14.46    2.09
  -1  -7   2   13.72    1.29
  -1  -7   2   14.17    1.84
  -1  -7   2   14.40    2.01
  -1  -7   2   13.97    1.29
   0   7  -2  130.86    4.97
   0   7  -2  127.00    3.89
   0   7  -2  129.01    5.07
   0   7  -2  129.15    3.07
   0  -7   2  122.62    4.08
   0  -7   2  133.73    4.19
   0  -7   2  125.47    4.18
   0  -7   2  126.96    4.79
  -1   7  -2    0.43    0.57
  -1   7  -2   -0.15    0.55
  -1   7  -2    0.37    0.66
   1  -7   2    0.08    0.68
   1  -7   2    0.97    0.64
   1  -7   2   -0.27    0.50
  -2   7  -2   50.01    3.32
  -2   7  -2   49.49    2.95
  -2   7  -2   55.37    3.06
  -2   7  -2   49.38    1.84
  -2   7  -2   54.34    3.29
   2  -7   2   46.00    2.73
   2  -7   2   44.42    2.68
   2  -7   2   56.04    2.98
  -3   7  -2    1.97    0.93
  -3   7  -2    3.06    1.17
  -3   7  -2    2.28    0.63
  -3   7  -2    2.18    0.97
  -3   7  -2    3.12    1.20
   3  -7   2    1.84    0.73
   3  -7   2    2.43    1.01
   3  -7   2    1.13    0.71
  -4   7  -2    4.64    1.41
  -4   7  -2    2.59    1.19
  -4   7  -2    2.11    0.91
  -4   7  -2    3.56    1.15
   4  -7   2    2.03    1.07
   4  -7   2    3.44    1.12
   4  -7   2    4.27    1.09
  -5   7  -2    0.89    0.99
  -5   7  -2   -0.44    0.82
  -5   7  -2    1.25    0.76
   5  -7   2    0.68    0.75
   5  -7   2    0.27    0.94
   5  -7   2    1.80    0.84
  -6   7  -2    0.38    0.68
  -6   7  -2    0.10    1.03
  -6   7  -2   -0.28    0.63
   6  -7   2   -1.19    0.42
   6  -7   2    0.32    1.10
  -7   7  -2    0.48    0.98
  -7   7  -2    1.96    1.41
  -7   7  -2    1.27    0.67
   7  -7   2    1.86    1.16
   7  -7   2    1.81    0.87
   7  -7   2    2.63    1.30
  -8   7  -2    0.97    0.62
  -8   7  -2    1.31    1.09
  -8   7  -2   -0.59    1.28
   8  -7   2   -0.35    0.66
   8  -7   2    1.20    1.25
   8  -7   2    1.28    1.41
   7   6  -2    2.97    1.76
   7   6  -2   -0.67    1.22
  -7  -6   2    0.44    0.99
  -7  -6   2    0.40    0.84
  -7  -6   2    1.27    1.06
   6   6  -2    2.76    1.69
   6   6  -2    3.41    1.63
  -6  -6   2    1.97    1.00
  -6  -6   2    2.14    1.12
  -6  -6   2    4.98    1.47
   5   6  -2    7.79    2.12
   5   6  -2    7.00    1.62
  -5  -6   2    8.18    1.54
  -5  -6   2    9.37    1.67
  -5  -6   2    7.19    1.50
   4   6  -2   19.33    2.70
   4   6  -2   21.23    2.84
  -4  -6   2   21.16    1.80
  -4  -6   2   19.44    0.71
  -4  -6   2   22.06    1.94
   3   6  -2    1.85    0.96
   3   6  -2    0.98    0.81
   3   6  -2    1.88    0.89
  -3  -6   2    2.71    0.95
  -3  -6   2    0.77    0.55
  -3  -6   2    1.40    0.44
  -3  -6   2    2.26    0.86
   2   6  -2   43.23    2.56
   2   6  -2   49.84    3.02
   2   6  -2   41.64    2.71
  -2  -6   2   49.11    2.48
  -2  -6   2   45.85    2.14
  -2  -6   2   44.79    1.84
  -2  -6   2   46.40    2.72
  -2  -6   2   46.87    1.74
  -2  -6   2   42.88    2.77
   1   6  -2    1.49    0.66
   1   6  -2    1.36    0.48
   1   6  -2    1.63    0.43
   1   6  -2    1.13    0.80
  -1  -6   2    2.67    0.70
  -1  -6   2    2.40    0.81
  -1  -6   2    2.36    0.71
  -1  -6   2    1.10    0.76
  -1  -6   2    1.72    0.66
  -1  -6   2    1.71    0.58
   0   6  -2   13.45    1.80
   0   6  -2   11.79    1.02
   0   6  -2   12.48    0.89
   0  -6   2   15.09    1.30
   0  -6   2   13.30    1.63
   0  -6   2   13.39    1.73
   0  -6   2   12.34    1.71
  -1   6  -2   28.08    2.49
  -1   6  -2   32.56    2.17
  -1   6  -2   37.00    2.30
  -1   6  -2   30.16    1.93
   1  -6   2   33.08    2.16
   1  -6   2   32.16    2.06
  -2   6  -2   33.54    2.25
  -2   6  -2   35.09    1.48
  -2   6  -2   34.46    2.15
  -2   6  -2   30.78    2.30
  -2   6  -2   37.82    2.35
   2  -6   2   34.36    2.59
   2  -6   2   32.34    2.08
   2  -6   2   33.06    2.10
   2  -6   2   33.73    2.17
   2  -6   2   34.32    2.19
  -3   6  -2    1.66    0.85
  -3   6  -2    2.93    0.91
  -3   6  -2    3.17    1.05
  -3   6  -2    1.68    0.31
  -3   6  -2    1.01    0.69
  -3   6  -2    2.09    0.60
   3  -6   2    2.49    0.98
   3  -6   2    1.56    0.79
   3  -6   2    1.92    0.88
   3  -6   2    2.40    0.76
   3  -6   2    1.53    0.70
  -4   6  -2    9.00    1.57
  -4   6  -2    8.46    1.06
  -4   6  -2    7.58    1.27
  -4   6  -2   11.21    1.81
   4  -6   2    9.11    1.59
   4  -6   2    9.25    1.37
   4  -6   2    9.01    1.62
   4  -6   2   10.78    1.81
  -5   6  -2   12.11    1.96
  -5   6  -2   11.38    1.43
  -5   6  -2   11.36    2.02
   5  -6   2    9.93    2.14
   5  -6   2    8.64    1.30
   5  -6   2   10.22    1.95
  -6   6  -2    3.22    1.38
  -6   6  -2    5.45    0.99
  -6   6  -2    5.02    1.38
   6  -6   2    5.53    1.80
   6  -6   2    3.65    0.85
   6  -6   2    3.77    1.29
  -7   6  -2    1.85    1.13
  -7   6  -2    3.14    0.68
  -7   6  -2    3.68    1.32
   7  -6   2    5.20    0.87
   7  -6   2    6.04    1.71
   7  -6   2    4.64    1.58
  -8   6  -2   -0.41    0.71
  -8   6  -2    1.25    1.18
   8  -6   2    0.90    1.25
   8  -6   2    3.84    1.59
   8  -6   2    3.12    1.46
   7   5  -2    1.91    1.56
   7   5  -2    4.04    1.99
  -7  -5   2    2.22    1.14
  -7  -5   2    4.16    1.54
   6   5  -2   31.40    3.22
   6   5  -2   31.24    3.07
  -6  -5   2   32.06    2.59
   5   5  -2    3.06    1.31
   5   5  -2    3.17    1.37
  -5  -5   2    3.88    1.29
  -5  -5   2    2.04    0.82
  -5  -5   2    2.64    0.33
   4   5  -2    9.65    1.71
   4   5  -2   12.26    2.17
   4   5  -2    8.61    1.62
  -4  -5   2   10.56    0.68
  -4  -5   2   11.73    1.75
  -4  -5   2    9.68    0.61
  -4  -5   2   12.11    1.89
   3   5  -2    0.77    0.56
   3   5  -2   -0.17    0.64
   3   5  -2   -0.14    0.61
  -3  -5   2   -0.55    0.54
  -3  -5   2   -0.01    0.43
  -3  -5   2    0.24    0.28
  -3  -5   2    0.58    0.31
  -3  -5   2    1.55    0.66
   2   5  -2   13.36    1.69
   2   5  -2   10.47    1.73
   2   5  -2    9.64    1.55
  -2  -5   2   10.41    1.30
  -2  -5   2    8.11    1.35
  -2  -5   2    9.11    0.77
  -2  -5   2    8.73    0.76
  -2  -5   2    9.43    1.46
  -2  -5   2    9.54    1.37
  -2  -5   2    8.50    0.77
  -2  -5   2    9.49    1.47
   1   5  -2  314.61    7.43
   1   5  -2  326.08    7.61
   1   5  -2  307.54    7.16
  -1  -5   2  310.47    7.36
  -1  -5   2  318.40    7.54
  -1  -5   2  303.55    6.96
  -1  -5   2  320.93    7.27
  -1  -5   2  321.26    4.74
  -1  -5   2  316.94    6.10
  -1  -5   2  316.83    7.07
  -1  -5   2  323.70    6.20
  -1  -5   2  313.21    6.43
  -1  -5   2  312.31    4.67
   0   5  -2  511.93    9.28
   0   5  -2  476.05    9.87
   0   5  -2  471.80    7.84
   0   5  -2  478.98    9.63
   0  -5   2  487.06    8.83
   0  -5   2  479.16    9.55
   0  -5   2  486.10    9.36
   0  -5   2  490.24    8.91
   0  -5   2  479.39   10.79
  -1   5  -2   39.35    2.15
  -1   5  -2   42.22    1.13
  -1   5  -2   38.98    2.14
  -1   5  -2   40.90    2.27
  -1   5  -2   38.98    2.36
   1  -5   2   44.52    2.24
   1  -5   2   43.80    2.14
   1  -5   2   41.67    2.18
   1  -5   2   45.58    2.28
  -2   5  -2   76.55    2.30
  -2   5  -2   71.08    2.91
  -2   5  -2   70.64    3.20
  -2   5  -2   77.83    2.94
  -2   5  -2   75.67    1.68
  -2   5  -2   83.52    3.31
  -2   5  -2   72.72    3.09
   2  -5   2   70.66    2.77
   2  -5   2   78.03    2.99
   2  -5   2   75.56    3.03
   2  -5   2   79.62    3.17
   2  -5   2   75.45    3.07
  -3   5  -2   44.12    2.08
  -3   5  -2   41.88    2.55
  -3   5  -2   42.64    2.44
  -3   5  -2   43.82    2.12
  -3   5  -2   45.10    2.54
  -3   5  -2   46.17    1.71
   3  -5   2   43.17    2.39
   3  -5   2   43.80    2.46
   3  -5   2   45.13    2.41
   3  -5   2   41.49    2.42
   3  -5   2   46.44    2.22
   3  -5   2   46.96    2.14
  -4   5  -2   16.15    2.11
  -4   5  -2   14.92    1.19
  -4   5  -2   15.69    1.30
  -4   5  -2   17.03    2.03
  -4   5  -2   13.53    1.80
   4  -5   2   15.63    2.01
   4  -5   2   14.01    1.20
   4  -5   2   14.00    1.94
   4  -5   2   16.22    2.02
  -5   5  -2   -0.64    0.46
  -5   5  -2    0.16    0.74
  -5   5  -2    0.73    0.90
  -5   5  -2    0.13    0.39
   5  -5   2    0.33    0.43
   5  -5   2   -0.76    0.49
   5  -5   2    0.24    0.75
  -6   5  -2    7.29    1.68
  -6   5  -2   10.08    0.90
  -6   5  -2    7.40    1.74
   6  -5   2    8.67    1.84
   6  -5   2    9.36    1.67
   6  -5   2    8.68    1.01
  -7   5  -2   -0.68    0.80
  -7   5  -2   -0.60    0.80
   7  -5   2    0.62    0.85
   7  -5   2    0.06    0.91
   7  -5   2    3.61    2.25
  -8   5  -2    9.71    2.05
  -8   5  -2   10.09    2.19
   8  -5   2    9.68    1.97
   8  -5   2    9.21    1.87
   8  -5   2    9.26    2.26
  -9   5  -2    2.00    1.45
  -9   5  -2    1.91    1.57
   9  -5   2    3.49    1.72
   9  -5   2   -0.09    1.40
   9  -5   2    0.24    1.17
   8   4  -2    3.35    1.61
   8   4  -2   -0.58    1.14
   8   4  -2    0.47    1.74
  -8  -4   2    2.99    1.33
  -8  -4   2    0.33    0.45
  -8  -4   2    1.53    0.49
   7   4  -2    0.18    1.28
   7   4  -2   -1.03    0.80
   7   4  -2   -0.38    0.95
  -7  -4   2    0.63    0.42
  -7  -4   2   -0.26    0.51
  -7  -4   2    0.23    0.43
  -7  -4   2    2.75    1.10
   6   4  -2    6.73    1.59
   6   4  -2    5.41    1.46
   6   4  -2    8.58    2.03
  -6  -4   2    7.67    0.78
  -6  -4   2    6.96    1.09
  -6  -4   2    8.03    0.75
  -6  -4   2    8.45    1.68
   5   4  -2  107.64    5.17
   5   4  -2  103.88    4.84
   5   4  -2  100.07    4.17
  -5  -4   2  102.79    4.22
  -5  -4   2  104.98    3.52
  -5  -4   2  102.46    4.11
  -5  -4   2   99.72    2.54
  -5  -4   2  100.15    2.71
   4   4  -2  145.17    5.53
   4   4  -2  147.71    5.22
   4   4  -2  145.57    4.98
  -4  -4   2  144.76    5.38
  -4  -4   2  150.80    4.33
  -4  -4   2  146.47    3.06
  -4  -4   2  142.77    4.85
  -4  -4   2  141.63    4.63
  -4  -4   2  146.20    2.94
   3   4  -2   11.14    1.60
   3   4  -2    9.65    1.51
   3   4  -2   10.25    1.69
  -3  -4   2    9.43    0.67
  -3  -4   2    8.81    1.21
  -3  -4   2   11.17    1.44
  -3  -4   2   12.99    1.71
  -3  -4   2    9.19    0.63
  -3  -4   2   10.81    1.46
  -3  -4   2   11.12    1.53
   2   4  -2   56.25    2.64
   2   4  -2   56.83    0.96
   2   4  -2   54.13    2.37
   2   4  -2   59.10    2.70
  -2  -4   2   53.83    1.74
  -2  -4   2   54.33    2.46
  -2  -4   2   52.93    2.46
  -2  -4   2   60.89    3.06
  -2  -4   2   56.71    1.72
  -2  -4   2   59.71    2.31
  -2  -4   2   60.08    3.09
  -2  -4   2   55.33    2.43
   1   4  -2   16.22    1.41
   1   4  -2   16.24    0.97
   1   4  -2   15.18    1.37
   1   4  -2   14.18    0.84
   1   4  -2   17.06    1.24
  -1  -4   2   15.72    0.64
  -1  -4   2   15.61    1.45
  -1  -4   2   15.96    1.36
  -1  -4   2   16.06    1.05
  -1  -4   2   14.58    1.18
  -1  -4   2   15.09    1.03
  -1  -4   2   15.90    1.40
  -1  -4   2   15.56    0.67
   0   4  -2  393.29    7.89
   0   4  -2  399.85    6.70
   0   4  -2  399.23    8.16
   0   4  -2  411.16    7.21
   0  -4   2  417.24    7.99
   0  -4   2  402.21    7.82
   0  -4   2  423.19    8.27
   0  -4   2  411.97    7.41
   0  -4   2  408.46    7.96
   0  -4   2  413.04    7.50
  -1   4  -2   11.02    1.04
  -1   4  -2   10.92    1.11
  -1   4  -2   11.85    1.43
  -1   4  -2   11.89    1.08
   1  -4   2   10.97    1.06
   1  -4   2    7.81    1.10
   1  -4   2   11.64    1.51
   1  -4   2   11.14    1.31
   1  -4   2   12.11    1.16
  -2   4  -2  179.10    3.63
  -2   4  -2  169.09    4.81
  -2   4  -2  177.46    4.22
  -2   4  -2  169.18    4.84
  -2   4  -2  177.56    4.79
  -2   4  -2  171.24    4.56
   2  -4   2  172.31    4.68
   2  -4   2  175.88    4.60
   2  -4   2  175.07    4.18
   2  -4   2  167.93    4.33
   2  -4   2  182.69    4.76
   2  -4   2  177.84    4.38
  -3   4  -2  112.71    3.88
  -3   4  -2  117.44    4.06
  -3   4  -2  109.07    3.72
  -3   4  -2  111.60    3.05
  -3   4  -2  107.01    3.14
   3  -4   2  107.26    3.67
   3  -4   2  108.71    3.78
   3  -4   2  108.37    2.96
   3  -4   2  112.85    3.24
   3  -4   2  114.71    3.87
  -4   4  -2   44.43    3.03
  -4   4  -2   47.33    2.54
  -4   4  -2   51.52    2.83
  -4   4  -2   48.45    2.30
   4  -4   2   45.72    2.55
   4  -4   2   49.08    2.66
   4  -4   2   47.71    1.92
   4  -4   2   48.64    2.75
  -5   4  -2   18.83    2.32
  -5   4  -2   17.34    2.17
  -5   4  -2   18.76    1.05
  -5   4  -2   17.20    2.11
   5  -4   2   19.57    1.15
   5  -4   2   18.35    2.45
   5  -4   2   16.95    2.09
  -6   4  -2   54.86    3.40
  -6   4  -2   53.25    3.58
  -6   4  -2   53.42    3.24
   6  -4   2   50.89    3.58
   6  -4   2   54.98    3.13
   6  -4   2   45.57    3.31
   6  -4   2   49.04    3.25
  -7   4  -2    6.14    1.54
  -7   4  -2    4.93    1.46
  -7   4  -2    6.19    1.57
   7  -4   2    5.78    1.79
   7  -4   2    2.80    1.24
   7  -4   2    5.84    1.39
  -8   4  -2    0.76    1.25
  -8   4  -2    1.31    1.09
  -8   4  -2    2.09    1.29
   8  -4   2    1.07    1.00
   8  -4   2    0.48    1.12
   8  -4   2    0.45    1.10
  -9   4  -2    0.47    1.08
  -9   4  -2    0.14    1.26
   9  -4   2    5.21    1.99
   9  -4   2    2.98    2.24
   9  -4   2    2.62    1.58
   8   3  -2   -0.61    1.18
   8   3  -2    1.92    1.55
   8   3  -2    0.81    1.06
  -8  -3   2   -0.91    0.55
  -8  -3   2    0.21    0.47
  -8  -3   2   -1.07    0.68
   7   3  -2    9.94    2.31
   7   3  -2   10.80    2.23
   7   3  -2   10.95    1.88
  -7  -3   2    7.76    1.07
  -7  -3   2   13.26    2.06
  -7  -3   2    8.42    1.13
  -7  -3   2   10.30    0.88
   6   3  -2    0.94    1.31
   6   3  -2    1.04    0.93
   6   3  -2    2.29    1.11
  -6  -3   2    2.28    0.95
  -6  -3   2    1.01    0.53
  -6  -3   2    0.93    0.53
  -6  -3   2    0.04    0.76
   5   3  -2    6.66    1.73
   5   3  -2    9.17    1.57
   5   3  -2    8.61    1.72
  -5  -3   2    9.11    1.41
  -5  -3   2    7.69    0.90
  -5  -3   2    8.50    1.54
  -5  -3   2    8.28    1.43
  -5  -3   2    7.69    1.05
   4   3  -2   18.73    1.78
   4   3  -2   15.82    1.38
   4   3  -2   16.88    2.24
  -4  -3   2   15.59    1.50
  -4  -3   2   18.21    0.99
  -4  -3   2   14.07    1.80
  -4  -3   2   13.70    1.37
  -4  -3   2   17.31    1.24
  -4  -3   2   19.37    0.99
  -4  -3   2   18.40    1.85
  -4  -3   2   14.52    1.28
   3   3  -2   28.61    1.66
   3   3  -2   24.87    1.94
   3   3  -2   29.72    1.95
   3   3  -2   32.91    2.00
  -3  -3   2   27.09    1.76
  -3  -3   2   22.10    1.90
  -3  -3   2   24.54    1.50
  -3  -3   2   28.03    1.76
  -3  -3   2   28.54    1.31
  -3  -3   2   27.88    1.10
  -3  -3   2   28.40    1.58
   2   3  -2    5.40    0.92
   2   3  -2    3.32    0.88
   2   3  -2    4.41    0.98
   2   3  -2    4.48    0.37
  -2  -3   2    3.70    0.90
  -2  -3   2    4.00    0.53
  -2  -3   2    5.60    0.64
  -2  -3   2    4.85    0.80
  -2  -3   2    8.17    1.20
  -2  -3   2    5.24    0.94
  -2  -3   2    5.42    0.92
  -2  -3   2    5.42    0.92
   1   3  -2  775.42   12.89
   1   3  -2  798.69   12.87
   1   3  -2  790.42   12.54
   1   3  -2  793.23   11.68
   1   3  -2  791.09   12.38
  -1  -3   2  778.59   12.75
  -1  -3   2  781.73   11.82
  -1  -3   2  782.16   12.90
  -1  -3   2  782.50   12.44
  -1  -3   2  780.00   11.59
  -1  -3   2  770.04   12.53
  -1  -3   2  784.59   11.13
   0   3  -2  101.53    3.04
   0   3  -2   95.35    2.51
   0   3  -2   98.58    2.80
   0   3  -2   97.51    2.82
   0   3  -2   98.49    2.40
   0   3  -2   96.85    2.66
   0  -3   2  103.04    3.01
   0  -3   2  100.30    2.64
   0  -3   2  106.73    2.94
   0  -3   2   93.33    2.80
   0  -3   2  102.58    2.88
   0  -3   2   99.26    2.70
  -1   3  -2  125.89    3.45
  -1   3  -2  123.88    3.39
  -1   3  -2  122.70    3.41
  -1   3  -2  120.74    3.13
  -1   3  -2  127.09    3.11
   1  -3   2  120.95    2.84
   1  -3   2  127.30    3.08
   1  -3   2  119.24    3.25
   1  -3   2  127.41    3.40
   1  -3   2  124.78    3.20
   1  -3   2  118.97    3.28
  -2   3  -2    2.81    0.71
  -2   3  -2    1.01    0.63
  -2   3  -2    2.49    0.52
  -2   3  -2    2.28    0.55
  -2   3  -2    2.16    0.82
   2  -3   2    1.32    0.54
   2  -3   2    1.20    0.63
   2  -3   2    1.55    0.57
   2  -3   2    3.59    0.73
   2  -3   2    1.54    0.58
  -3   3  -2    1.45    0.73
  -3   3  -2    1.56    0.65
  -3   3  -2    1.69    0.65
  -3   3  -2    1.98    0.72
   3  -3   2    2.19    0.80
   3  -3   2    2.22    0.80
   3  -3   2    1.22    0.59
   3  -3   2    2.30    0.71
  -4   3  -2    0.96    0.65
  -4   3  -2    1.14    0.29
  -4   3  -2    0.80    0.62
  -4   3  -2    1.14    0.71
   4  -3   2    0.57    0.71
   4  -3   2    0.37    0.54
   4  -3   2    0.77    0.71
   4  -3   2    1.04    0.38
   4  -3   2    1.11    0.51
   4  -3   2    1.45    0.63
  -5   3  -2   48.30    1.19
  -5   3  -2   48.06    2.84
  -5   3  -2   46.82    2.74
  -5   3  -2   48.90    2.69
   5  -3   2   50.82    3.15
   5  -3   2   56.43    3.26
   5  -3   2   43.16    2.54
   5  -3   2   47.65    2.99
   5  -3   2   46.25    1.43
  -6   3  -2   58.90    3.38
  -6   3  -2   64.52    3.51
  -6   3  -2   56.61    3.14
   6  -3   2   58.26    3.13
   6  -3   2   63.56    3.79
   6  -3   2   59.37    3.71
   6  -3   2   70.73    4.17
  -7   3  -2    2.48    1.23
  -7   3  -2    1.99    1.05
  -7   3  -2    4.26    1.25
   7  -3   2    1.41    1.08
   7  -3   2    2.45    1.08
   7  -3   2    3.96    1.29
  -8   3  -2    3.84    1.38
  -8   3  -2    5.91    1.60
  -8   3  -2    6.68    1.55
   8  -3   2    2.93    1.26
   8  -3   2    3.67    1.32
   8  -3   2    5.23    2.02
   8  -3   2    3.80    1.60
  -9   3  -2    0.22    0.66
  -9   3  -2   -1.63    0.72
   9  -3   2   -1.72    0.83
   9  -3   2    0.91    1.18
   9   2  -2    6.60    1.88
   9   2  -2   11.62    2.95
   9   2  -2   10.05    2.93
  -9  -2   2    4.15    1.48
  -9  -2   2    6.36    1.27
   8   2  -2    0.34    1.20
   8   2  -2    2.66    1.14
   8   2  -2    0.26    1.22
  -8  -2   2    1.39    0.79
  -8  -2   2   -0.80    0.86
  -8  -2   2    0.61    0.70
   7   2  -2    2.83    1.23
   7   2  -2    1.64    1.29
  -7  -2   2    2.85    0.85
  -7  -2   2    2.77    0.76
  -7  -2   2    2.84    1.24
   6   2  -2   61.34    3.82
   6   2  -2   53.44    1.33
   6   2  -2   58.16    3.02
  -6  -2   2   53.68    2.79
  -6  -2   2   57.20    2.37
  -6  -2   2   57.84    2.43
  -6  -2   2   51.59    3.06
   5   2  -2  133.25    2.63
   5   2  -2  141.64    4.41
   5   2  -2  130.44    5.39
   5   2  -2  127.90    2.60
  -5  -2   2  139.16    3.57
  -5  -2   2  135.75    3.57
  -5  -2   2  135.00    4.17
  -5  -2   2  132.00    4.21
  -5  -2   2  132.84    3.25
   4   2  -2   11.76    1.13
   4   2  -2   13.04    1.88
   4   2  -2   12.10    1.69
   4   2  -2   10.75    0.62
  -4  -2   2   11.30    1.52
  -4  -2   2   10.93    1.53
  -4  -2   2   11.47    0.89
  -4  -2   2   14.37    1.43
  -4  -2   2   12.05    0.90
  -4  -2   2   11.84    1.16
  -4  -2   2   11.15    1.04
  -4  -2   2   10.10    0.83
   3   2  -2   21.53    1.55
   3   2  -2   20.95    1.28
   3   2  -2   21.79    0.92
   3   2  -2   20.73    1.78
   3   2  -2   20.85    0.82
   3   2  -2   21.76    1.22
  -3  -2   2   20.32    1.20
  -3  -2   2   22.49    1.09
  -3  -2   2   22.11    1.46
  -3  -2   2   21.13    1.22
  -3  -2   2   24.55    1.58
  -3  -2   2   21.18    1.56
  -3  -2   2   22.11    1.52
  -3  -2   2   20.54    1.03
   2   2  -2  247.66    5.33
   2   2  -2  248.80    4.17
   2   2  -2  249.41    4.13
   2   2  -2  248.56    5.04
   2   2  -2  251.07    5.60
   2   2  -2  252.42    4.89
  -2  -2   2  250.34    5.40
  -2  -2   2  251.50    4.89
  -2  -2   2  246.01    4.36
  -2  -2   2  249.01    4.99
  -2  -2   2  251.71    4.70
  -2  -2   2  249.28    5.26
  -2  -2   2  250.32    4.46
   1   2  -2   12.29    0.64
   1   2  -2   12.02    0.68
   1   2  -2   13.53    0.97
   1   2  -2   13.95    0.91
  -1  -2   2   11.22    0.91
  -1  -2   2   14.15    0.98
  -1  -2   2   12.44    0.91
  -1  -2   2   13.53    0.80
  -1  -2   2   13.34    0.63
  -1  -2   2   12.43    0.85
  -1  -2   2   12.49    0.87
   0  -2   2  907.46   14.13
  -1   2  -2    6.41    0.60
  -1   2  -2    6.81    0.82
  -1   2  -2    7.35    0.95
  -1   2  -2    8.03    0.77
  -1   2  -2    6.64    0.97
  -1   2  -2    6.43    0.53
   1  -2   2    6.95    0.60
   1  -2   2    6.60    0.64
   1  -2   2    7.45    1.01
   1  -2   2    7.71    0.78
   1  -2   2    6.64    0.55
   1  -2   2    7.85    0.90
  -2   2  -2   59.33    1.70
  -2   2  -2   55.35    1.33
  -2   2  -2   53.05    2.08
  -2   2  -2   58.75    2.17
  -2   2  -2   53.30    2.15
  -2   2  -2   58.27    2.15
  -2   2  -2   57.28    2.19
   2  -2   2   57.89    2.21
   2  -2   2   56.37    1.35
   2  -2   2   54.57    2.10
   2  -2   2   58.88    2.19
   2  -2   2   57.56    2.06
   2  -2   2   55.80    1.66
  -3   2  -2  372.15    7.37
  -3   2  -2  364.53    5.15
  -3   2  -2  352.74    7.71
  -3   2  -2  351.59    7.14
  -3   2  -2  370.63    7.49
   3  -2   2  367.61    7.26
   3  -2   2  358.83    7.16
   3  -2   2  366.59    7.26
   3  -2   2  357.73    7.81
  -4   2  -2  168.04    4.66
  -4   2  -2  165.73    5.30
  -4   2  -2  167.82    4.82
  -4   2  -2  171.90    4.89
   4  -2   2  170.64    2.91
   4  -2   2  159.41    5.32
   4  -2   2  170.44    5.40
   4  -2   2  171.67    4.64
   4  -2   2  165.08    4.63
   4  -2   2  166.91    4.60
   4  -2   2  181.25    5.53
  -5   2  -2    8.44    1.35
  -5   2  -2    7.07    1.48
  -5   2  -2    7.59    1.35
   5  -2   2    7.08    1.66
   5  -2   2    7.64    1.51
   5  -2   2    6.68    1.50
  -6   2  -2    7.48    1.46
  -6   2  -2    9.33    1.72
  -6   2  -2    6.67    1.31
   6  -2   2    7.13    1.74
   6  -2   2    8.38    1.37
   6  -2   2    9.82    1.94
   6  -2   2    7.58    1.91
  -7   2  -2    4.07    1.28
  -7   2  -2    4.52    1.03
  -7   2  -2    3.95    1.29
   7  -2   2    1.00    1.30
   7  -2   2    3.60    1.58
   7  -2   2    4.35    1.13
   7  -2   2    2.49    1.09
  -8   2  -2    2.99    1.38
  -8   2  -2    5.17    1.43
  -8   2  -2    2.19    1.17
   8  -2   2    5.14    1.86
   8  -2   2    3.27    1.50
   8  -2   2    7.28    2.30
  -9   2  -2   -0.44    0.90
   9  -2   2    2.62    2.00
   9  -2   2    2.70    1.49
   9   1  -2    0.44    1.42
   9   1  -2    0.93    1.07
   9   1  -2   -2.23    1.20
  -9  -1   2    0.24    0.95
  -9  -1   2   -0.28    0.76
   8   1  -2    4.03    1.10
   8   1  -2    5.34    1.97
  -8  -1   2    1.53    0.82
   7   1  -2   -0.31    0.48
   7   1  -2    1.47    1.19
   7   1  -2   -0.22    1.07
  -7  -1   2   -0.05    0.64
  -7  -1   2    0.66    0.84
  -7  -1   2   -0.21    0.55
  -7  -1   2    0.18    0.86
   6   1  -2    1.01    0.55
   6   1  -2    1.98    1.30
   6   1  -2    0.81    0.52
   6   1  -2    1.31    1.01
  -6  -1   2    0.27    0.58
  -6  -1   2    0.58    0.71
  -6  -1   2    0.48    0.42
  -6  -1   2    0.82    0.73
  -6  -1   2    0.06    0.51
   5   1  -2    5.01    0.97
   5   1  -2    4.78    0.72
   5   1  -2    6.73    1.50
   5   1  -2    6.63    1.49
  -5  -1   2    4.98    1.14
  -5  -1   2    6.13    0.56
  -5  -1   2    8.18    1.54
  -5  -1   2    5.69    0.93
  -5  -1   2    7.79    1.21
  -5  -1   2    5.93    1.03
   4   1  -2   63.18    2.36
   4   1  -2   65.36    2.06
   4   1  -2   67.91    2.06
   4   1  -2   61.29    3.11
   4   1  -2   75.04    3.17
  -4  -1   2   64.41    2.24
  -4  -1   2   66.44    2.29
  -4  -1   2   67.30    3.01
  -4  -1   2   66.15    1.86
  -4  -1   2   67.16    2.79
  -4  -1   2   61.57    3.03
   3   1  -2    5.26    0.67
   3   1  -2    5.01    0.65
   3   1  -2    5.54    1.01
   3   1  -2    6.20    0.74
   3   1  -2    4.21    1.05
  -3  -1   2    5.72    0.77
  -3  -1   2    5.82    1.01
  -3  -1   2    5.98    0.73
  -3  -1   2    4.94    0.92
  -3  -1   2    5.26    0.75
  -3  -1   2    6.41    0.63
  -3  -1   2    6.89    1.16
  -3  -1   2    5.55    0.95
  -3  -1   2    6.12    1.02
   2   1  -2   20.51    0.95
   2   1  -2   19.98    0.90
   2   1  -2   18.81    0.77
   2   1  -2   20.28    1.33
   2   1  -2   21.00    1.16
  -2  -1   2   18.60    1.29
  -2  -1   2   21.09    0.97
  -2  -1   2   20.41    0.77
  -2  -1   2   18.82    1.10
  -2  -1   2   18.42    0.93
  -2  -1   2   21.20    1.01
  -2  -1   2   20.21    1.14
   0   1  -2  142.13    3.00
   0   1  -2  148.28    2.86
   0   1  -2  142.47    2.91
   0   1  -2  141.66    2.71
   0   1  -2  146.32    2.86
   0   1  -2  143.43    2.53
   0  -1   2  147.42    2.90
   0  -1   2  142.70    2.93
   0  -1   2  140.11    2.87
  -1   1  -2   23.18    1.18
  -1   1  -2   24.24    0.93
  -1   1  -2   24.03    1.15
  -1   1  -2   22.86    1.17
  -1   1  -2   24.15    1.14
  -1   1  -2   23.30    1.07
   1  -1   2   25.30    0.94
   1  -1   2   25.59    1.16
   1  -1   2   25.90    1.09
   1  -1   2   27.03    1.32
  -2   1  -2   36.93    1.12
  -2   1  -2   37.22    1.57
  -2   1  -2   35.92    1.77
  -2   1  -2   39.27    1.67
  -2   1  -2   34.94    1.80
   2  -1   2   36.97    1.86
   2  -1   2   38.11    1.58
   2  -1   2   38.03    1.10
   2  -1   2   37.34    1.86
   2  -1   2   37.32    1.52
   2  -1   2   37.60    1.55
  -3   1  -2  109.35    3.24
  -3   1  -2  110.66    3.80
  -3   1  -2  109.73    2.23
  -3   1  -2  110.03    3.32
  -3   1  -2  111.05    3.78
   3  -1   2  111.89    3.78
   3  -1   2  110.59    2.06
   3  -1   2  110.85    3.14
   3  -1   2  114.98    3.97
   3  -1   2  115.25    3.24
   3  -1   2  107.13    3.89
   3  -1   2  112.91    3.15
  -4   1  -2   34.64    1.84
  -4   1  -2   37.80    2.02
  -4   1  -2   35.19    1.99
  -4   1  -2   38.18    2.45
   4  -1   2   37.58    2.51
   4  -1   2   39.12    2.44
   4  -1   2   34.53    1.79
   4  -1   2   36.92    2.54
   4  -1   2   34.71    1.76
  -5   1  -2   27.00    1.77
  -5   1  -2   26.31    1.91
   5  -1   2   24.98    2.45
   5  -1   2   27.38    2.49
   5  -1   2   27.59    2.28
  -6   1  -2    2.82    1.08
  -6   1  -2    3.06    1.00
  -6   1  -2    2.12    0.84
   6  -1   2    0.43    1.09
   6  -1   2    4.34    1.36
   6  -1   2    2.66    1.23
  -7   1  -2    5.18    1.31
  -7   1  -2    2.41    1.15
  -7   1  -2    3.55    1.02
   7  -1   2    3.42    1.59
   7  -1   2    2.09    1.18
   7  -1   2    2.54    1.11
   7  -1   2    3.02    0.85
  -8   1  -2    5.35    1.41
  -8   1  -2    8.25    1.64
   8  -1   2    7.81    2.37
   8  -1   2    6.11    1.95
   8  -1   2    8.33    2.04
  -9   1  -2    1.27    1.04
  -9   1  -2   -0.07    0.93
   9  -1   2   -1.71    0.74
   9  -1   2   -2.35    0.90
   9   0  -2    0.16    1.49
   9   0  -2    2.62    1.22
   9   0  -2    2.11    1.41
  -9   0   2    1.95    1.14
  -9   0   2    0.64    1.03
   8   0  -2    2.38    1.39
   8   0  -2   -0.54    0.77
   8   0  -2   -0.69    1.23
  -8   0   2   -0.98    0.57
   7   0  -2   45.81    3.25
   7   0  -2   41.08    2.21
   7   0  -2   46.05    3.62
   7   0  -2   46.34    3.60
  -7   0   2   42.86    2.60
  -7   0   2   44.47    2.93
  -7   0   2   46.03    3.03
  -7   0   2   41.27    2.30
   6   0  -2   84.79    4.41
   6   0  -2   81.83    3.44
   6   0  -2   77.36    4.18
  -6   0   2   86.06    3.82
  -6   0   2   81.27    3.33
  -6   0   2   80.46    3.28
   5   0  -2    8.99    1.24
   5   0  -2    8.07    1.60
   5   0  -2    9.35    1.61
   5   0  -2    7.81    0.57
   5   0  -2    8.12    1.06
   5   0  -2    7.96    1.46
  -5   0   2    8.11    1.15
  -5   0   2    8.80    0.53
  -5   0   2    9.64    1.50
   4   0  -2   72.52    1.83
   4   0  -2   69.83    2.80
   4   0  -2   69.18    2.43
   4   0  -2   72.75    2.41
   4   0  -2   76.38    3.28
   4   0  -2   69.17    3.15
  -4   0   2   66.96    2.79
  -4   0   2   69.88    2.50
  -4   0   2   71.09    2.97
  -4   0   2   70.61    2.54
   3   0  -2    4.95    0.58
   3   0  -2    4.85    0.77
   3   0  -2    5.21    0.92
   3   0  -2    5.92    0.79
   3   0  -2    5.69    1.20
   3   0  -2    4.52    0.84
   3   0  -2    6.14    0.81
  -3   0   2    4.66    0.72
  -3   0   2    4.98    0.76
  -3   0   2    6.06    1.02
  -3   0   2    4.32    0.82
  -3   0   2    5.45    1.04
   2   0  -2  325.52    6.33
   2   0  -2  333.27    5.76
   2   0  -2  342.44    6.30
   2   0  -2  337.81    5.41
   2   0  -2  329.09    5.78
  -2   0   2  321.28    5.81
  -2   0   2  328.94    6.17
  -2   0   2  335.72    5.68
  -2   0   2  321.06    6.39
  -2   0   2  326.63    6.38
   1   0  -2  238.30    3.62
   1   0  -2  229.43    4.01
   1   0  -2  236.17    4.27
   1   0  -2  227.17    4.13
  -1   0   2  235.39    4.20
  -1   0   2  230.79    4.01
  -1   0   2  231.05    4.36
  -1   0   2  233.70    4.61
   0   0  -2   12.79    0.78
   0   0  -2   11.60    0.67
   0   0  -2   10.44    0.70
   0   0  -2   11.98    0.68
   0   0  -2   12.41    0.84
   0   0   2   12.09    0.83
   0   0   2   12.11    0.67
   0   0   2   11.83    0.76
   0   0   2   12.65    0.74
   0   0   2   11.64    0.37
   0   0   2   11.37    0.72
   0   0   2   11.44    0.52
  -1   0  -2  378.54    6.97
  -1   0  -2  385.98    6.83
  -1   0  -2  373.52    6.15
  -1   0  -2  380.29    5.87
  -1   0  -2  370.22    6.26
  -1   0  -2  380.81    5.91
  -1   0  -2  378.39    6.80
   1   0   2  381.89    6.78
   1   0   2  373.89    5.84
   1   0   2  385.91    7.03
   1   0   2  375.21    5.88
   1   0   2  378.98    6.20
   1   0   2  380.76    6.85
  -2   0  -2  127.61    2.91
  -2   0  -2  121.56    3.67
  -2   0  -2  119.39    3.54
  -2   0  -2  121.85    2.42
  -2   0  -2  126.62    3.02
  -2   0  -2  122.00    3.65
  -2   0  -2  124.37    2.26
  -2   0  -2  122.69    2.88
   2   0   2  126.61    3.64
   2   0   2  123.27    2.45
   2   0   2  119.67    2.80
   2   0   2  117.33    3.74
   2   0   2  123.15    3.79
   2   0   2  117.94    2.81
  -3   0  -2  209.57    5.55
  -3   0  -2  213.88    4.79
  -3   0  -2  211.58    4.70
  -3   0  -2  219.30    4.60
  -3   0  -2  214.94    3.65
  -3   0  -2  220.01    5.80
   3   0   2  215.57    4.41
   3   0   2  214.21    5.99
   3   0   2  219.90    5.74
   3   0   2  222.46    6.15
  -4   0  -2    1.43    0.60
  -4   0  -2    2.00    0.65
  -4   0  -2    2.43    0.77
  -4   0  -2    0.88    0.62
  -4   0  -2    1.13    0.27
  -4   0  -2    1.20    0.23
   4   0   2    0.81    0.47
   4   0   2    1.44    0.78
   4   0   2    2.32    0.94
   4   0   2    2.49    1.07
   4   0   2    1.47    0.50
   4   0   2    1.05    0.58
  -5   0  -2    1.34    0.78
  -5   0  -2    3.65    0.88
  -5   0  -2    3.19    0.48
  -5   0  -2    2.62    0.70
   5   0   2    2.33    1.15
   5   0   2    4.26    0.74
   5   0   2    3.15    0.87
   5   0   2    3.37    1.23
  -6   0  -2   14.48    1.36
  -6   0  -2   13.98    1.75
  -6   0  -2   16.18    2.05
   6   0   2   15.07    2.63
   6   0   2   14.16    2.62
   6   0   2   14.92    1.24
   6   0   2   12.50    1.99
  -7   0  -2   -0.11    0.67
  -7   0  -2    0.99    0.67
  -7   0  -2   -0.07    0.71
   7   0   2   -0.54    0.50
   7   0   2   -1.26    0.71
   7   0   2   -0.04    1.39
   7   0   2    0.56    0.69
  -8   0  -2    3.90    1.21
  -8   0  -2    7.93    1.55
   8   0   2    8.43    2.55
   8   0   2    6.19    1.87
  -9   0  -2    7.20    1.78
  -9   0  -2    7.52    1.65
   9   0   2    5.34    1.98
   9   0   2    5.01    1.77
   9  -1  -2    5.97    2.12
   9  -1  -2    7.55    2.08
   9  -1  -2    7.75    1.84
  -9   1   2    4.48    1.44
  -9   1   2    5.70    1.64
   8  -1  -2   16.41    2.79
   8  -1  -2   16.54    2.90
   8  -1  -2   17.75    2.42
  -8   1   2   18.30    2.80
  -8   1   2   18.95    2.53
  -8   1   2   19.57    1.95
   7  -1  -2   27.68    2.00
   7  -1  -2   30.72    2.98
   7  -1  -2   29.65    2.93
  -7   1   2   27.23    2.31
  -7   1   2   26.93    2.14
  -7   1   2   31.69    2.35
   6  -1  -2   23.86    2.37
   6  -1  -2   28.33    2.06
   6  -1  -2   26.47    2.51
   6  -1  -2   22.78    0.69
   6  -1  -2   23.92    1.70
  -6   1   2   22.63    1.80
  -6   1   2   23.86    1.91
  -6   1   2   22.59    1.96
   5  -1  -2   53.43    1.47
   5  -1  -2   54.28    2.49
   5  -1  -2   56.05    2.47
   5  -1  -2   52.83    3.14
   5  -1  -2   50.07    2.92
   5  -1  -2   54.45    3.06
   5  -1  -2   53.00    2.37
  -5   1   2   51.64    2.89
   4  -1  -2    4.88    0.57
   4  -1  -2    2.31    0.94
   4  -1  -2    3.86    1.06
   4  -1  -2    5.13    0.97
   4  -1  -2    3.85    0.85
   4  -1  -2    3.33    0.71
  -4   1   2    4.07    0.95
  -4   1   2    4.13    0.93
  -4   1   2    5.37    1.00
  -4   1   2    3.63    0.88
   3  -1  -2  409.42    6.54
   3  -1  -2  392.31    7.46
   3  -1  -2  396.74    7.35
   3  -1  -2  394.98    7.83
  -3   1   2  402.01    7.90
  -3   1   2  397.19    7.49
  -3   1   2  404.29    7.53
  -3   1   2  413.89    7.93
  -3   1   2  404.02    6.51
  -3   1   2  405.58    7.51
   2  -1  -2  168.54    3.61
   2  -1  -2  172.97    4.04
   2  -1  -2  169.84    4.21
   2  -1  -2  169.15    3.74
   2  -1  -2  168.99    3.90
   2  -1  -2  169.08    3.63
  -2   1   2  168.59    3.78
  -2   1   2  169.42    3.83
  -2   1   2  169.96    3.62
  -2   1   2  165.83    3.30
  -2   1   2  162.84    3.94
  -1  -1  -2  285.41    4.79
  -1  -1  -2  284.75    6.01
  -1  -1  -2  265.27    5.71
  -1  -1  -2  280.98    4.95
  -1  -1  -2  272.49    4.28
  -1  -1  -2  277.59    5.79
  -1  -1  -2  292.92    5.24
  -1  -1  -2  274.88    4.70
   1   1   2  280.42    4.46
   1   1   2  271.57    4.30
   1   1   2  274.67    6.06
   1   1   2  281.90    4.68
   1   1   2  279.79    5.87
   1   1   2  279.66    5.61
   1   1   2  279.15    4.58
   1   1   2  276.03    4.98
  -2  -1  -2  119.47    2.75
  -2  -1  -2  118.86    3.86
  -2  -1  -2  122.62    2.72
  -2  -1  -2  119.22    3.72
  -2  -1  -2  123.46    3.76
  -2  -1  -2  121.56    2.68
  -2  -1  -2  121.90    2.79
  -2  -1  -2  122.39    3.89
   2   1   2  121.45    3.83
   2   1   2  123.96    4.58
   2   1   2  120.97    2.49
   2   1   2  118.96    2.82
   2   1   2  121.32    3.08
   2   1   2  120.21    2.47
   2   1   2  123.18    4.08
  -3  -1  -2  178.35    3.79
  -3  -1  -2  180.83    3.52
  -3  -1  -2  175.43    3.89
  -3  -1  -2  182.02    4.15
  -3  -1  -2  179.03    3.81
  -3  -1  -2  178.68    5.16
  -3  -1  -2  176.37    4.12
  -3  -1  -2  181.32    5.40
   3   1   2  167.78    5.42
   3   1   2  179.32    3.41
   3   1   2  173.69    5.56
   3   1   2  175.94    4.15
   3   1   2  180.64    3.79
   3   1   2  184.20    5.37
  -4  -1  -2    1.28    0.80
  -4  -1  -2    2.63    0.69
  -4  -1  -2    2.29    0.70
  -4  -1  -2    1.36    0.59
  -4  -1  -2    1.21    0.70
  -4  -1  -2    0.92    0.41
   4   1   2    0.75    0.56
   4   1   2    1.40    0.88
   4   1   2    0.77    0.61
  -5  -1  -2   13.85    1.21
  -5  -1  -2   12.11    0.65
  -5  -1  -2   14.69    1.40
  -5  -1  -2   12.64    0.74
  -5  -1  -2   14.08    1.67
  -5  -1  -2   11.63    0.94
  -5  -1  -2   13.25    1.15
   5   1   2   15.64    1.83
   5   1   2   12.73    2.32
   5   1   2   12.41    0.79
   5   1   2   14.13    2.17
   5   1   2   13.70    1.24
   5   1   2   13.17    2.19
  -6  -1  -2   21.08    1.69
  -6  -1  -2   18.66    1.22
  -6  -1  -2   18.29    1.82
  -6  -1  -2   20.14    1.48
   6   1   2   19.54    2.58
   6   1   2   18.69    2.99
   6   1   2   21.12    3.04
   6   1   2   19.95    0.99
  -7  -1  -2    1.48    0.62
  -7  -1  -2    3.03    0.87
  -7  -1  -2    5.65    1.28
  -7  -1  -2    5.99    1.24
   7   1   2    2.09    1.22
   7   1   2    3.83    1.76
  -8  -1  -2   -0.89    0.66
   8   1   2    1.22    1.45
   8   1   2    0.01    0.98
   8   1   2    1.32    1.52
   9  -2  -2    1.95    1.17
   9  -2  -2   -1.20    1.01
   9  -2  -2    0.39    1.34
   9  -2  -2    1.39    1.35
  -9   2   2    0.56    0.66
  -9   2   2    1.95    1.25
   8  -2  -2   -0.85    0.94
   8  -2  -2    2.16    0.96
   8  -2  -2    0.89    1.10
  -8   2   2   -0.12    0.51
  -8   2   2   -1.52    0.78
  -8   2   2    2.56    1.27
   7  -2  -2    5.82    1.80
   7  -2  -2    4.69    1.59
  -7   2   2    5.37    1.45
  -7   2   2    6.09    1.35
  -7   2   2    5.27    1.34
   6  -2  -2    0.60    0.65
   6  -2  -2    0.01    0.75
   6  -2  -2   -0.17    0.25
   6  -2  -2   -0.69    0.80
   6  -2  -2   -0.04    0.59
  -6   2   2    0.70    0.74
  -6   2   2   -0.01    0.63
  -6   2   2    0.16    0.52
   5  -2  -2   10.40    2.07
   5  -2  -2   12.23    0.80
   5  -2  -2   11.10    1.70
  -5   2   2   12.94    1.25
  -5   2   2   11.21    1.81
  -5   2   2   13.71    1.98
   4  -2  -2    5.56    1.21
   4  -2  -2    4.93    0.94
   4  -2  -2    5.64    0.69
   4  -2  -2    3.94    0.99
   4  -2  -2    5.29    0.96
  -4   2   2    6.11    1.00
  -4   2   2    5.29    1.28
  -4   2   2    6.07    1.07
  -4   2   2    4.69    1.05
  -4   2   2    4.91    1.07
   3  -2  -2    9.32    1.22
   3  -2  -2    9.98    1.07
   3  -2  -2    8.99    0.75
   3  -2  -2    9.91    0.99
   3  -2  -2    7.58    1.20
   3  -2  -2   10.58    1.08
  -3   2   2   10.60    1.22
  -3   2   2    9.17    1.30
  -3   2   2   11.65    1.36
  -3   2   2   10.44    1.26
  -3   2   2   11.06    1.34
   2  -2  -2  122.94    3.39
   2  -2  -2  119.73    2.92
   2  -2  -2  123.51    2.94
   2  -2  -2  121.23    3.23
   2  -2  -2  120.19    3.31
   2  -2  -2  122.21    3.10
  -2   2   2  123.33    3.31
  -2   2   2  119.32    3.36
  -2   2   2  124.86    3.33
   1  -2  -2  412.60    6.35
   1  -2  -2  413.16    7.06
   1  -2  -2  404.57    7.26
   1  -2  -2  408.49    7.12
  -1   2   2  408.91    7.34
  -1   2   2  409.40    7.04
  -1   2   2  399.86    7.26
  -1   2   2  404.54    6.37
  -1   2   2  407.06    7.10
   0  -2  -2   87.43    2.23
   0  -2  -2   88.51    2.92
   0  -2  -2   92.44    2.62
   0  -2  -2   84.45    1.56
   0  -2  -2   90.39    2.67
   0  -2  -2   84.57    2.27
   0   2   2   89.80    2.97
   0   2   2   90.27    2.63
   0   2   2   88.82    2.24
   0   2   2   85.83    2.26
   0   2   2   87.92    2.61
  -1  -2  -2   10.43    0.55
  -1  -2  -2   10.60    1.05
  -1  -2  -2   10.30    1.27
  -1  -2  -2   11.80    0.94
  -1  -2  -2   14.36    1.70
  -1  -2  -2   12.71    0.74
  -1  -2  -2   10.86    1.41
  -1  -2  -2   11.70    0.93
  -1  -2  -2   10.06    0.70
   1   2   2   10.54    0.80
   1   2   2   10.34    1.00
   1   2   2   11.67    1.15
   1   2   2   10.20    0.58
   1   2   2   10.32    0.62
   1   2   2   10.25    0.92
  -2  -2  -2   32.08    1.30
  -2  -2  -2   29.82    1.93
  -2  -2  -2   28.70    2.00
  -2  -2  -2   30.75    1.96
  -2  -2  -2   28.08    1.16
  -2  -2  -2   30.37    1.47
  -2  -2  -2   31.17    1.14
  -2  -2  -2   29.64    1.51
   2   2   2   32.01    2.19
   2   2   2   33.67    2.11
   2   2   2   32.06    1.66
   2   2   2   31.06    1.64
   2   2   2   30.14    2.04
   2   2   2   30.95    0.67
  -3  -2  -2   58.70    3.05
  -3  -2  -2   53.58    2.80
  -3  -2  -2   60.86    1.88
  -3  -2  -2   57.55    1.96
  -3  -2  -2   54.35    2.86
  -3  -2  -2   59.00    2.31
  -3  -2  -2   63.38    2.20
  -3  -2  -2   57.21    2.22
   3   2   2   61.10    3.27
   3   2   2   62.57    3.39
   3   2   2   60.02    2.28
   3   2   2   60.74    3.14
  -4  -2  -2    0.26    0.42
  -4  -2  -2    0.28    0.31
  -4  -2  -2    0.04    0.52
  -4  -2  -2   -0.13    0.28
  -4  -2  -2    0.16    0.39
  -4  -2  -2   -0.14    0.50
   4   2   2   -1.01    0.67
   4   2   2    0.43    0.39
   4   2   2   -0.20    0.72
   4   2   2   -0.31    0.84
  -5  -2  -2   14.33    0.91
  -5  -2  -2   14.55    1.17
  -5  -2  -2   17.44    1.50
  -5  -2  -2   12.26    1.56
  -5  -2  -2   14.11    1.02
  -5  -2  -2   14.36    1.07
  -5  -2  -2   13.31    1.30
  -5  -2  -2   11.28    2.05
   5   2   2   12.19    2.06
   5   2   2   11.89    2.31
   5   2   2   11.59    2.34
  -6  -2  -2    0.63    1.24
  -6  -2  -2    1.28    0.55
  -6  -2  -2    1.52    0.71
  -6  -2  -2    1.46    0.77
  -6  -2  -2    0.62    0.51
   6   2   2    1.39    1.04
   6   2   2    0.52    0.64
   6   2   2    0.39    1.27
  -7  -2  -2   10.07    1.25
  -7  -2  -2    8.16    1.58
  -7  -2  -2    9.36    1.30
  -7  -2  -2    7.28    1.96
  -7  -2  -2   12.31    1.95
   7   2   2    9.54    2.06
   7   2   2   10.96    2.39
   7   2   2    7.79    2.32
  -8  -2  -2    4.64    1.85
  -8  -2  -2    2.85    1.41
  -8  -2  -2    4.00    0.93
  -8  -2  -2    4.53    1.06
   8   2   2    5.00    2.15
   8   2   2    3.26    1.50
   8   2   2    1.09    1.61
   9  -3  -2    1.89    1.09
   9  -3  -2    1.13    1.19
   9  -3  -2   -0.95    1.19
   9  -3  -2    2.99    1.22
  -9   3   2    2.76    1.17
  -9   3   2    3.87    1.39
   8  -3  -2    5.48    1.34
   8  -3  -2    2.31    1.18
   8  -3  -2    3.35    1.27
  -8   3   2    2.97    1.59
   7  -3  -2   31.66    2.75
   7  -3  -2   36.31    2.70
   7  -3  -2   28.32    2.86
  -7   3   2   35.57    2.69
  -7   3   2   30.49    2.57
  -7   3   2   36.58    2.81
   6  -3  -2   86.96    2.43
   6  -3  -2   87.45    4.14
   6  -3  -2   89.78    3.85
   6  -3  -2   94.80    4.66
  -6   3   2   83.56    3.83
  -6   3   2   90.20    4.07
  -6   3   2   85.23    3.90
   5  -3  -2  165.22    5.14
   5  -3  -2  168.97    3.82
   5  -3  -2  163.90    5.13
  -5   3   2  172.53    5.34
  -5   3   2  164.36    5.14
   4  -3  -2   13.03    1.61
   4  -3  -2   10.80    0.93
   4  -3  -2   10.30    1.34
   4  -3  -2   12.78    1.52
   4  -3  -2   11.93    1.58
  -4   3   2   12.91    1.58
  -4   3   2   13.50    1.75
  -4   3   2    9.94    1.44
  -4   3   2   12.02    1.23
   3  -3  -2  613.28   11.06
   3  -3  -2  607.80   10.99
   3  -3  -2  629.08   10.60
   3  -3  -2  605.56   11.06
   3  -3  -2  603.24   10.27
  -3   3   2  596.98   11.05
  -3   3   2  618.75   11.21
  -3   3   2  616.55   10.67
  -3   3   2  610.59   11.04
  -3   3   2  619.36   10.86
   2  -3  -2  147.02    3.95
   2  -3  -2  141.80    3.39
   2  -3  -2  148.59    3.37
   2  -3  -2  142.08    3.86
   2  -3  -2  140.56    3.81
  -2   3   2  143.35    3.88
  -2   3   2  148.36    4.50
  -2   3   2  139.29    3.89
  -2   3   2  135.45    3.41
  -2   3   2  135.03    3.80
   1  -3  -2   44.55    1.99
   1  -3  -2   45.01    1.84
   1  -3  -2   45.75    1.68
   1  -3  -2   43.76    1.90
   1  -3  -2   47.72    1.92
  -1   3   2   42.52    1.52
  -1   3   2   46.23    2.10
  -1   3   2   42.39    1.80
  -1   3   2   43.24    1.90
  -1   3   2   47.33    1.89
   0  -3  -2   42.98    1.98
   0  -3  -2   42.66    1.27
   0  -3  -2   40.16    1.89
   0  -3  -2   44.05    1.68
   0  -3  -2   40.54    1.85
   0  -3  -2   42.49    1.63
   0  -3  -2   43.13    2.23
   0   3   2   42.09    1.91
   0   3   2   46.38    1.88
   0   3   2   41.98    1.59
   0   3   2   42.72    2.05
  -1  -3  -2   91.44    3.53
  -1  -3  -2   89.10    3.17
  -1  -3  -2   94.23    3.18
  -1  -3  -2   92.30    2.78
  -1  -3  -2   94.84    2.38
  -1  -3  -2   92.35    3.66
  -1  -3  -2   94.55    3.12
  -1  -3  -2   90.03    2.28
   1   3   2   90.96    3.59
   1   3   2   94.15    3.14
   1   3   2   91.78    1.98
   1   3   2   90.43    2.34
   1   3   2   92.35    3.14
  -2  -3  -2  433.76    8.88
  -2  -3  -2  431.23    8.39
  -2  -3  -2  418.49    6.79
  -2  -3  -2  450.78   10.81
  -2  -3  -2  421.61    8.00
  -2  -3  -2  414.50    7.06
  -2  -3  -2  430.87    7.27
   2   3   2  440.79    7.99
   2   3   2  409.46    9.45
   2   3   2  418.52    8.39
  -3  -3  -2  225.38    5.57
  -3  -3  -2  227.85    4.93
  -3  -3  -2  217.50    6.25
  -3  -3  -2  226.72    5.48
  -3  -3  -2  219.24    6.51
  -3  -3  -2  220.80    6.71
  -3  -3  -2  220.92    4.11
   3   3   2  232.84    7.40
   3   3   2  230.24    5.60
   3   3   2  231.79    6.91
   3   3   2  223.31    6.84
  -4  -3  -2   20.35    1.45
  -4  -3  -2   19.38    2.02
  -4  -3  -2   18.53    1.56
  -4  -3  -2   20.81    1.06
   4   3   2   17.80    1.48
   4   3   2   18.53    2.67
   4   3   2   20.64    2.18
   4   3   2   22.29    2.91
  -5  -3  -2   15.23    1.25
  -5  -3  -2   12.57    2.14
  -5  -3  -2   15.64    1.99
  -5  -3  -2   16.51    1.07
  -5  -3  -2   13.00    1.66
  -5  -3  -2   13.72    1.14
  -5  -3  -2   14.14    0.96
   5   3   2   16.45    3.15
   5   3   2   17.32    2.52
   5   3   2   19.15    2.98
  -6  -3  -2   10.19    1.46
  -6  -3  -2   11.61    1.04
  -6  -3  -2   13.81    1.80
  -6  -3  -2    9.87    0.98
  -6  -3  -2    9.48    0.90
  -6  -3  -2    9.75    2.12
  -6  -3  -2   11.50    1.01
   6   3   2   10.54    2.08
   6   3   2   12.53    2.48
   6   3   2   12.50    2.67
  -7  -3  -2   -0.23    1.11
  -7  -3  -2    2.20    0.71
  -7  -3  -2    1.30    0.59
  -7  -3  -2    0.82    0.57
  -7  -3  -2    1.75    0.92
   7   3   2    3.08    1.60
   7   3   2    2.00    1.54
  -8  -3  -2    8.75    2.31
  -8  -3  -2    6.34    1.06
  -8  -3  -2    8.32    1.51
   8   3   2    4.80    1.79
   8   3   2   11.03    3.03
   9  -4  -2    2.73    1.69
   9  -4  -2    1.55    1.22
   9  -4  -2    0.17    1.14
   9  -4  -2    2.43    1.54
  -9   4   2    1.62    1.01
  -9   4   2    0.49    0.90
  -9   4   2    2.37    1.39
   8  -4  -2   -0.22    0.31
   8  -4  -2    0.37    0.83
   8  -4  -2   -0.23    0.99
   8  -4  -2   -0.23    0.83
  -8   4   2    1.25    0.90
  -8   4   2   -0.03    0.94
   7  -4  -2   14.66    2.21
   7  -4  -2   12.82    1.03
   7  -4  -2   13.49    2.41
   7  -4  -2   14.54    2.22
  -7   4   2    8.52    1.90
  -7   4   2   19.68    2.71
  -7   4   2   12.15    2.08
  -7   4   2   12.67    1.68
   6  -4  -2   63.61    3.89
   6  -4  -2   60.83    3.30
   6  -4  -2   66.03    3.47
   6  -4  -2   61.28    2.26
  -6   4   2   68.84    3.60
  -6   4   2   67.27    3.77
  -6   4   2   63.40    2.94
  -6   4   2   60.57    3.36
   5  -4  -2   52.93    2.94
   5  -4  -2   45.49    2.00
  -5   4   2   51.16    2.90
  -5   4   2   47.83    2.48
  -5   4   2   55.19    2.93
   4  -4  -2    8.63    1.30
   4  -4  -2    9.02    1.21
   4  -4  -2    9.06    1.44
  -4   4   2    8.38    1.31
  -4   4   2    7.90    1.31
  -4   4   2    9.20    1.52
  -4   4   2    9.72    1.49
   3  -4  -2    1.64    0.67
   3  -4  -2    0.84    0.59
   3  -4  -2    1.85    0.56
   3  -4  -2    2.89    0.74
   3  -4  -2    1.57    0.67
  -3   4   2    3.70    0.90
  -3   4   2    1.84    0.75
  -3   4   2    1.98    0.80
  -3   4   2    2.95    0.76
  -3   4   2    2.83    0.89
   2  -4  -2   44.48    2.19
   2  -4  -2   44.25    1.83
   2  -4  -2   46.61    2.18
   2  -4  -2   43.75    2.10
  -2   4   2   47.92    2.19
  -2   4   2   42.76    1.91
  -2   4   2   42.29    2.26
  -2   4   2   45.27    2.18
  -2   4   2   43.96    2.20
   1  -4  -2    9.32    1.34
   1  -4  -2   11.24    1.60
   1  -4  -2    8.14    1.10
   1  -4  -2    9.07    1.15
   1  -4  -2    7.47    1.13
   1  -4  -2    9.21    0.77
  -1   4   2   10.90    1.38
  -1   4   2    8.35    1.28
  -1   4   2   10.16    1.22
  -1   4   2    9.40    0.95
  -1   4   2    9.89    1.25
   0  -4  -2   20.17    1.45
   0  -4  -2   19.08    1.51
   0  -4  -2   18.73    1.31
   0  -4  -2   19.29    1.25
   0  -4  -2   19.40    1.68
   0  -4  -2   17.07    1.17
   0  -4  -2   19.75    1.13
   0   4   2   18.90    1.44
   0   4   2   18.00    1.11
   0   4   2   19.53    1.38
   0   4   2   19.24    1.12
   0   4   2   18.04    1.52
  -1  -4  -2  142.36    4.28
  -1  -4  -2  154.74    4.37
  -1  -4  -2  145.07    3.37
  -1  -4  -2  150.02    5.14
  -1  -4  -2  147.29    5.05
  -1  -4  -2  160.16    4.29
  -1  -4  -2  146.27    3.28
  -1  -4  -2  147.74    3.34
   1   4   2  145.67    2.84
   1   4   2  151.76    3.20
   1   4   2  154.69    4.22
   1   4   2  140.06    4.46
   1   4   2  144.95    4.18
  -2  -4  -2    5.40    0.65
  -2  -4  -2    4.59    0.95
  -2  -4  -2    4.16    0.94
  -2  -4  -2    5.61    0.71
  -2  -4  -2    4.44    0.56
  -2  -4  -2    3.62    1.14
  -2  -4  -2    6.73    1.47
  -2  -4  -2    6.31    1.24
   2   4   2    3.14    0.81
   2   4   2    5.35    1.49
   2   4   2    3.40    0.91
  -3  -4  -2    0.20    0.58
  -3  -4  -2    0.50    0.69
  -3  -4  -2   -1.06    0.45
  -3  -4  -2    0.20    0.25
  -3  -4  -2    0.21    0.41
  -3  -4  -2    0.16    0.20
   3   4   2    0.38    0.50
   3   4   2    0.41    0.60
   3   4   2    0.07    0.68
  -4  -4  -2   11.07    1.63
  -4  -4  -2   13.72    2.08
  -4  -4  -2    8.82    1.24
   4   4   2    9.67    1.59
   4   4   2    9.37    2.09
   4   4   2    9.88    2.14
  -5  -4  -2   22.48    1.71
  -5  -4  -2   23.34    2.49
  -5  -4  -2   22.79    1.58
  -5  -4  -2   22.44    0.81
  -5  -4  -2   21.41    0.83
  -5  -4  -2   23.14    1.77
   5   4   2   23.58    3.10
   5   4   2   23.44    3.62
   5   4   2   20.82    3.17
  -6  -4  -2    0.47    0.71
  -6  -4  -2    1.89    0.75
  -6  -4  -2    1.76    0.35
  -6  -4  -2    3.47    0.94
  -6  -4  -2    0.86    1.05
   6   4   2    2.91    1.54
   6   4   2    1.18    1.58
  -7  -4  -2    4.37    1.22
  -7  -4  -2    3.83    0.33
  -7  -4  -2    4.29    0.37
  -7  -4  -2    1.45    0.89
  -7  -4  -2    2.85    1.58
   7   4   2    2.55    1.79
   7   4   2    1.05    1.21
   9  -5  -2    0.88    1.41
   9  -5  -2   -0.45    1.19
   9  -5  -2    0.40    1.21
   9  -5  -2   -0.23    1.10
  -9   5   2   -0.09    0.76
  -9   5   2    1.52    1.25
  -9   5   2    0.01    0.96
   8  -5  -2    2.66    0.70
   8  -5  -2    4.18    0.87
   8  -5  -2    2.98    1.29
   8  -5  -2    4.51    1.76
  -8   5   2    3.63    1.39
  -8   5   2    5.31    1.23
  -8   5   2    2.69    1.46
   7  -5  -2    8.15    1.74
   7  -5  -2    4.99    1.73
   7  -5  -2    6.44    1.91
   7  -5  -2    6.55    1.01
  -7   5   2    3.61    1.26
  -7   5   2    6.86    1.64
  -7   5   2    7.56    1.42
   6  -5  -2   11.35    2.06
   6  -5  -2    7.33    1.11
   6  -5  -2    7.01    1.48
  -6   5   2    7.90    1.43
  -6   5   2    9.68    1.94
  -6   5   2    6.90    1.59
   5  -5  -2   20.20    1.98
   5  -5  -2   21.88    1.65
   5  -5  -2   23.18    1.60
  -5   5   2   26.98    2.15
   4  -5  -2   15.96    1.51
   4  -5  -2   19.04    1.76
   4  -5  -2   19.07    1.82
   4  -5  -2   19.47    1.31
  -4   5   2   16.72    1.70
  -4   5   2   18.25    1.67
  -4   5   2   18.55    1.86
   3  -5  -2   59.94    2.86
   3  -5  -2   55.93    2.63
   3  -5  -2   59.94    2.52
   3  -5  -2   58.84    2.88
   3  -5  -2   58.57    1.89
  -3   5   2   58.62    2.62
  -3   5   2   57.48    2.88
  -3   5   2   56.53    2.67
  -3   5   2   56.64    2.89
  -3   5   2   63.91    2.93
   2  -5  -2    5.51    1.09
   2  -5  -2    4.25    0.92
   2  -5  -2    2.27    0.73
   2  -5  -2    3.48    0.69
  -2   5   2    3.86    0.89
  -2   5   2    3.39    0.87
  -2   5   2    3.85    1.06
  -2   5   2    2.89    0.72
  -2   5   2    6.20    1.19
  -2   5   2    4.31    0.98
   1  -5  -2   34.08    2.39
   1  -5  -2   32.13    1.48
   1  -5  -2   30.95    1.78
   1  -5  -2   34.20    1.57
   1  -5  -2   31.78    1.79
   1  -5  -2   31.40    2.03
   1  -5  -2   31.75    1.81
  -1   5   2   32.47    2.04
  -1   5   2   32.96    1.79
  -1   5   2   31.09    1.73
  -1   5   2   34.85    1.68
  -1   5   2   32.00    2.18
  -1   5   2   29.68    1.77
   0  -5  -2   44.65    2.51
   0  -5  -2   42.14    1.93
   0  -5  -2   38.49    2.61
   0  -5  -2   38.43    1.82
   0  -5  -2   44.35    2.16
   0  -5  -2   40.06    1.65
   0   5   2   41.95    2.31
   0   5   2   41.60    1.84
   0   5   2   38.41    1.71
   0   5   2   43.11    2.50
   0   5   2   40.49    2.06
  -1  -5  -2    4.76    1.40
  -1  -5  -2    5.01    0.75
  -1  -5  -2    4.49    0.92
  -1  -5  -2    4.34    0.71
  -1  -5  -2    4.79    0.70
   1   5   2    5.19    1.16
   1   5   2    4.54    0.51
   1   5   2    4.51    1.07
  -2  -5  -2  155.34    4.00
  -2  -5  -2  157.43    4.89
  -2  -5  -2  175.29    5.28
   2   5   2  159.84    4.88
   2   5   2  174.32    6.36
  -3  -5  -2   26.96    1.62
  -3  -5  -2   28.14    1.02
  -3  -5  -2   29.08    2.46
  -3  -5  -2   27.46    1.14
   3   5   2   28.33    2.24
   3   5   2   30.07    2.71
  -4  -5  -2   18.44    2.47
  -4  -5  -2   15.61    1.40
   4   5   2   17.34    2.70
   4   5   2   16.15    2.13
  -5  -5  -2    2.13    1.13
  -5  -5  -2    0.98    0.82
  -5  -5  -2    1.89    0.88
   5   5   2    2.91    1.16
  -6  -5  -2   -0.41    0.80
  -6  -5  -2    1.69    1.00
  -6  -5  -2    0.72    1.54
   6   5   2    0.28    1.21
  -7  -5  -2   -0.99    1.29
  -7  -5  -2   -0.38    0.88
   7   5   2   -0.26    1.36
   9  -6  -2    2.71    1.38
   9  -6  -2    4.07    1.62
   9  -6  -2    0.38    1.45
  -9   6   2   -0.03    1.18
  -9   6   2    1.48    1.04
  -9   6   2    3.10    1.32
   8  -6  -2   -0.26    0.75
   8  -6  -2    0.39    1.43
   8  -6  -2    0.12    1.14
   8  -6  -2   -0.22    0.62
  -8   6   2    0.79    1.16
  -8   6   2   -0.61    0.98
  -8   6   2   -0.66    0.71
   7  -6  -2    6.43    1.60
   7  -6  -2    6.58    1.55
   7  -6  -2    7.16    1.94
  -7   6   2    4.88    1.21
  -7   6   2    9.37    1.98
  -7   6   2    9.03    1.97
   6  -6  -2   15.26    2.53
   6  -6  -2   16.50    1.64
   6  -6  -2   11.69    2.04
  -6   6   2   12.88    2.56
  -6   6   2   13.79    1.99
  -6   6   2   17.66    2.59
   5  -6  -2   23.00    2.14
   5  -6  -2   24.39    1.83
  -5   6   2   25.91    2.17
  -5   6   2   19.55    2.37
  -5   6   2   23.89    3.18
   4  -6  -2   30.64    2.39
   4  -6  -2   27.24    1.36
   4  -6  -2   28.26    2.24
  -4   6   2   28.62    2.14
  -4   6   2   25.79    2.25
  -4   6   2   31.94    2.38
   3  -6  -2   13.97    1.91
   3  -6  -2   13.01    1.30
   3  -6  -2   11.83    1.75
   3  -6  -2   12.70    0.72
   3  -6  -2   12.49    1.58
  -3   6   2   12.34    1.75
  -3   6   2   13.05    1.70
  -3   6   2   14.24    1.76
  -3   6   2   13.40    1.95
   2  -6  -2    3.51    0.50
   2  -6  -2    4.36    0.97
   2  -6  -2    3.24    0.93
   2  -6  -2    4.58    1.00
   2  -6  -2    3.59    0.85
   2  -6  -2    4.24    0.51
  -2   6   2    4.05    1.14
  -2   6   2    4.36    1.22
  -2   6   2    4.07    0.94
  -2   6   2    3.05    0.94
  -2   6   2    2.99    0.81
   1  -6  -2    0.69    0.48
   1  -6  -2    0.41    0.48
   1  -6  -2    0.52    0.50
   1  -6  -2   -0.07    0.50
   1  -6  -2    0.49    0.49
  -1   6   2   -0.05    0.28
  -1   6   2   -0.05    0.39
  -1   6   2    0.10    0.50
   0  -6  -2   28.07    1.81
   0  -6  -2   29.06    1.70
   0  -6  -2   27.99    1.52
   0  -6  -2   27.49    1.67
   0  -6  -2   26.99    1.69
   0   6   2   27.67    2.29
   0   6   2   28.98    1.69
   0   6   2   25.44    1.73
   0   6   2   29.77    2.20
  -1  -6  -2   17.12    1.23
  -1  -6  -2   17.47    1.59
  -1  -6  -2   17.29    1.24
  -1  -6  -2   16.33    1.27
   1   6   2   15.20    2.07
   1   6   2   16.01    0.71
   1   6   2   14.66    0.66
  -2  -6  -2    4.13    0.91
  -2  -6  -2    4.15    0.67
  -2  -6  -2    5.22    1.21
  -2  -6  -2    4.48    0.74
   2   6   2    1.38    0.91
  -3  -6  -2    9.23    0.64
  -3  -6  -2   10.75    0.65
  -3  -6  -2    9.47    1.24
  -3  -6  -2   10.79    2.08
   3   6   2   10.97    1.96
   3   6   2   10.58    1.72
  -4  -6  -2    3.67    0.93
  -4  -6  -2    1.95    0.98
  -4  -6  -2    3.51    1.42
   4   6   2    2.08    1.20
  -5  -6  -2    1.30    1.23
  -5  -6  -2    2.12    0.97
  -5  -6  -2    2.45    0.93
  -6  -6  -2    1.92    1.35
  -6  -6  -2   -0.17    0.76
  -6  -6  -2   -1.23    0.84
   6   6   2    0.55    1.14
   8  -7  -2   11.20    2.61
   8  -7  -2    8.76    1.79
   8  -7  -2    7.33    1.46
  -8   7   2    9.89    1.67
  -8   7   2   10.71    2.80
  -8   7   2   10.95    2.34
   7  -7  -2    0.01    0.80
   7  -7  -2   -0.31    0.95
  -7   7   2    0.72    1.08
  -7   7   2    0.56    0.96
  -7   7   2    0.18    0.77
   6  -7  -2    0.51    0.71
   6  -7  -2    1.20    1.17
  -6   7   2    2.94    1.36
  -6   7   2    1.18    1.04
  -6   7   2    1.14    0.88
   5  -7  -2    1.04    0.97
   5  -7  -2    0.86    0.53
  -5   7   2   -0.17    0.75
  -5   7   2    2.91    1.24
  -5   7   2    1.14    0.82
   4  -7  -2   19.85    2.52
   4  -7  -2   19.43    2.41
  -4   7   2   20.03    1.96
  -4   7   2   20.48    2.00
  -4   7   2   22.93    2.70
  -4   7   2   15.27    2.20
   3  -7  -2   11.48    1.84
   3  -7  -2   13.13    1.62
   3  -7  -2   14.28    2.00
  -3   7   2   12.18    1.64
  -3   7   2   11.18    2.05
  -3   7   2   13.53    1.85
  -3   7   2    9.27    1.67
  -3   7   2   10.06    1.56
   2  -7  -2   10.36    1.65
   2  -7  -2   10.81    1.39
   2  -7  -2    9.55    1.26
   2  -7  -2    9.43    1.45
  -2   7   2    9.65    1.42
  -2   7   2    9.72    1.79
  -2   7   2   11.88    2.03
  -2   7   2    9.43    1.38
   1  -7  -2   24.38    1.86
   1  -7  -2   25.01    1.31
   1  -7  -2   24.69    1.74
   1  -7  -2   27.12    1.70
   1  -7  -2   23.37    1.82
  -1   7   2   26.73    2.30
  -1   7   2   22.76    2.18
  -1   7   2   25.71    1.75
   0  -7  -2   16.40    1.47
   0  -7  -2   14.74    1.39
   0  -7  -2   12.27    1.53
   0  -7  -2   12.14    1.53
   0  -7  -2   12.26    1.18
   0   7   2   17.16    2.18
   0   7   2   16.97    2.36
   0   7   2   13.19    1.62
  -1  -7  -2    0.88    0.64
  -1  -7  -2    0.03    0.46
  -1  -7  -2    0.63    0.51
  -1  -7  -2    1.44    0.68
   1   7   2    0.69    0.69
   1   7   2    0.51    0.83
  -2  -7  -2   10.91    0.95
  -2  -7  -2    8.86    1.53
  -2  -7  -2   10.38    0.97
  -2  -7  -2    7.91    1.22
   2   7   2    8.05    1.55
  -3  -7  -2    1.35    1.01
  -3  -7  -2    2.17    0.76
  -3  -7  -2    2.59    0.95
  -3  -7  -2    3.18    0.47
   3   7   2    5.54    1.24
   3   7   2    5.42    1.40
  -4  -7  -2   -0.32    0.80
  -4  -7  -2   -0.06    1.07
  -4  -7  -2   -1.37    0.94
   4   7   2    0.12    0.65
   4   7   2   -0.45    0.81
  -5  -7  -2    3.50    1.10
  -5  -7  -2    2.63    1.19
  -5  -7  -2    4.38    1.19
   8  -8  -2   -0.10    1.26
   8  -8  -2    1.72    1.31
   8  -8  -2    2.02    1.95
  -8   8   2    2.72    1.68
  -8   8   2    0.87    1.17
  -8   8   2    5.03    1.67
   7  -8  -2    6.00    1.89
  -7   8   2    4.46    1.55
  -7   8   2    5.58    1.52
  -7   8   2    1.87    1.57
   6  -8  -2    0.23    0.95
  -6   8   2   -1.46    0.83
  -6   8   2    0.99    0.78
  -6   8   2    1.24    1.12
   5  -8  -2    1.51    1.00
  -5   8   2    0.43    0.93
  -5   8   2   -0.07    1.03
  -5   8   2    0.12    0.89
   4  -8  -2    0.81    0.89
  -4   8   2    0.77    0.89
  -4   8   2    0.24    0.86
  -4   8   2    0.41    0.83
  -4   8   2    0.12    0.84
   3  -8  -2    1.17    0.95
   3  -8  -2    0.02    0.84
  -3   8   2    0.10    0.63
  -3   8   2   -0.74    0.66
  -3   8   2   -0.31    0.76
  -3   8   2    0.64    1.01
  -3   8   2    0.69    0.81
   2  -8  -2    9.58    1.64
   2  -8  -2   12.20    1.82
   2  -8  -2   11.93    1.51
  -2   8   2    8.91    1.80
  -2   8   2    8.40    1.69
  -2   8   2    8.39    1.56
  -2   8   2   10.41    1.49
   1  -8  -2   14.85    1.50
   1  -8  -2   18.65    1.84
   1  -8  -2   18.20    1.01
   1  -8  -2   16.10    1.52
   1  -8  -2   16.71    2.06
  -1   8   2   17.02    1.59
  -1   8   2   15.85    1.48
  -1   8   2   14.39    2.21
  -1   8   2   16.03    2.47
   0  -8  -2    5.54    1.10
   0  -8  -2    6.74    1.21
   0  -8  -2    5.16    1.10
   0  -8  -2    6.84    1.28
   0  -8  -2    4.39    0.94
   0   8   2    5.65    1.59
   0   8   2    4.78    1.47
   0   8   2    4.90    0.86
  -1  -8  -2   -0.29    0.68
  -1  -8  -2    1.17    0.64
  -1  -8  -2    0.80    0.74
  -1  -8  -2   -0.07    0.80
   1   8   2    0.62    0.79
   1   8   2    0.36    0.97
  -2  -8  -2    2.11    0.88
  -2  -8  -2    2.11    0.63
   2   8   2    3.27    1.14
  -3  -8  -2    1.25    1.03
  -3  -8  -2    1.43    0.68
  -3  -8  -2    1.39    0.39
   3   8   2    3.11    1.20
   3   8   2    0.71    0.99
  -4  -8  -2    3.03    0.93
  -4  -8  -2    0.62    1.07
  -4  -8  -2    1.61    1.07
   4   8   2    3.14    1.37
   4   8   2    0.88    0.95
   7  -9  -2    4.13    1.79
  -7   9   2    0.19    0.97
  -7   9   2   -3.96    1.25
  -7   9   2    2.40    1.57
  -6   9   2    1.20    1.17
  -6   9   2    1.71    1.45
  -6   9   2    2.11    1.05
  -6   9   2   -1.23    0.94
   5  -9  -2    0.77    1.04
  -5   9   2    1.69    1.00
  -5   9   2   -0.54    1.11
  -5   9   2    0.56    1.42
   4  -9  -2    1.51    1.19
  -4   9   2    3.84    1.16
  -4   9   2    3.76    1.35
  -4   9   2    1.64    1.24
   3  -9  -2    2.55    1.25
   3  -9  -2    4.53    1.32
  -3   9   2    5.90    1.39
  -3   9   2    5.22    1.55
  -3   9   2    2.34    1.15
  -3   9   2    5.19    1.50
   2  -9  -2    8.80    1.75
   2  -9  -2    8.98    1.40
   2  -9  -2   11.10    1.91
  -2   9   2   13.15    2.28
   1  -9  -2    9.84    1.63
   1  -9  -2   10.25    1.37
   1  -9  -2   13.72    1.91
  -1   9   2    8.84    1.88
  -1   9   2   10.45    2.01
  -1   9   2    8.82    1.45
  -1   9   2    8.46    1.39
   0  -9  -2    3.43    0.92
   0  -9  -2    3.79    1.10
   0  -9  -2    6.33    1.23
   0   9   2    5.47    1.57
   0   9   2    3.23    1.24
   0   9   2    6.71    1.71
  -1  -9  -2    0.24    0.69
  -1  -9  -2   -0.09    0.97
  -1  -9  -2    0.03    0.65
   1   9   2   -0.75    0.81
   1   9   2   -0.57    0.63
  -2  -9  -2    0.89    0.66
  -2  -9  -2    0.60    0.57
  -2  -9  -2   -1.58    0.96
   2   9   2    1.02    1.11
   2   9   2    1.74    1.39
  -3  -9  -2   -0.17    1.01
  -3  -9  -2    0.41    0.31
  -3  -9  -2    1.18    1.11
   3   9   2   -1.82    1.09
   3   9   2    0.06    0.99
   6 -10  -2   -0.92    1.13
  -6  10   2    0.62    0.99
  -6  10   2    1.61    1.31
  -6  10   2    0.77    1.49
  -6  10   2    1.23    1.42
  -5  10   2    6.95    1.94
  -5  10   2    5.32    1.90
  -5  10   2    5.33    1.66
  -5  10   2    5.10    1.49
   4 -10  -2    9.84    2.02
  -4  10   2    8.88    2.05
  -4  10   2    8.35    1.83
  -4  10   2   10.61    2.45
  -4  10   2    8.04    1.97
   3 -10  -2    4.05    1.16
  -3  10   2    1.86    1.29
  -3  10   2    0.09    1.06
  -3  10   2    2.10    1.17
   2 -10  -2    2.46    1.12
  -2  10   2   -0.51    0.96
  -2  10   2    1.19    1.11
   1 -10  -2    1.80    0.75
  -1  10   2    2.90    1.46
  -1  10   2    2.95    1.23
   0 -10  -2   -1.20    1.31
   0 -10  -2   -1.66    1.12
   0  10   2   -0.74    0.57
   0  10   2    1.48    1.08
  -1 -10  -2    0.26    0.76
  -1 -10  -2    2.13    0.79
  -1 -10  -2    0.80    0.88
  -1 -10  -2    0.24    1.15
   1  10   2   -0.69    1.02
  -3  11   2    3.42    1.59
  -3  11   2    1.73    1.23
  -2  11   2    0.95    1.44
  -2  11   2   -0.58    1.11
   1  11  -3    4.72    1.59
   1  11  -3    1.73    1.60
  -1 -11   3    2.21    0.93
  -1 -11   3   -0.03    1.01
   0  11  -3   10.77    2.33
   0  11  -3    7.50    1.88
   0 -11   3   10.65    1.96
   0 -11   3    7.42    1.77
  -1  11  -3   14.88    2.66
  -1  11  -3   15.91    2.65
   1 -11   3   14.79    2.60
   1 -11   3   14.84    2.28
  -2  11  -3    1.84    1.02
  -2  11  -3    0.28    0.93
  -2  11  -3    1.03    1.57
   2 -11   3    1.66    1.03
   2 -11   3   -0.30    0.98
  -3  11  -3    0.86    1.12
  -3  11  -3    0.76    1.64
  -3  11  -3    0.81    1.10
   3 -11   3    0.78    1.18
   3 -11   3   -1.30    0.93
   3 -11   3    0.35    0.95
  -4  11  -3    0.65    1.00
  -4  11  -3    2.91    1.86
  -4  11  -3    1.63    1.56
  -4  11  -3    0.83    1.16
   4 -11   3    0.96    1.04
   4 -11   3   -1.70    0.89
  -5  11  -3    0.00    1.39
  -5  11  -3    1.02    1.22
  -5  11  -3   -2.20    1.48
  -5  11  -3   -1.98    1.17
   5 -11   3   -0.70    1.15
   5 -11   3    0.68    1.34
   5 -11   3    0.27    1.13
   3  10  -3    1.87    1.33
   3  10  -3    0.35    1.15
  -3 -10   3    1.75    1.21
  -3 -10   3   -1.08    0.55
  -3 -10   3    0.82    0.59
   2  10  -3    1.45    1.06
   2  10  -3    2.34    1.20
  -2 -10   3    0.90    0.69
  -2 -10   3    1.81    1.23
  -2 -10   3    2.86    1.26
   1  10  -3   -0.48    0.96
   1  10  -3    0.63    0.93
  -1 -10   3   -0.15    0.70
  -1 -10   3    0.73    1.18
  -1 -10   3   -0.32    0.83
  -1 -10   3    0.69    1.06
   0  10  -3    0.34    1.21
   0  10  -3    1.08    0.91
   0  10  -3   -1.80    1.28
   0 -10   3   -2.71    0.93
   0 -10   3    0.74    1.03
   0 -10   3   -0.34    0.57
  -1  10  -3   40.09    3.26
  -1  10  -3   38.38    3.28
   1 -10   3   33.09    2.64
   1 -10   3   39.00    3.17
   1 -10   3   37.43    2.86
   1 -10   3   34.34    2.77
  -2  10  -3   33.76    2.77
  -2  10  -3   36.02    3.59
  -2  10  -3   30.72    3.09
   2 -10   3   35.52    3.02
   2 -10   3   32.02    2.78
  -3  10  -3    5.42    1.56
  -3  10  -3    3.00    1.15
  -3  10  -3    4.33    1.47
   3 -10   3    3.87    1.43
   3 -10   3    2.07    1.19
   3 -10   3    4.48    1.24
  -4  10  -3    0.68    0.59
  -4  10  -3   -0.66    1.08
  -4  10  -3    0.44    0.85
  -4  10  -3   -0.61    1.30
  -4  10  -3    1.65    0.89
  -4  10  -3    0.50    1.37
   4 -10   3    0.88    1.07
   4 -10   3    0.60    0.97
   4 -10   3    1.18    1.30
  -5  10  -3   -0.66    1.30
  -5  10  -3    3.51    1.23
  -5  10  -3    2.49    1.53
  -5  10  -3    0.66    1.30
   5 -10   3    2.65    1.38
   5 -10   3    2.19    1.28
   5 -10   3   -0.24    1.20
  -6  10  -3    3.37    1.20
  -6  10  -3    1.01    1.57
  -6  10  -3    3.54    1.91
  -6  10  -3    3.54    2.02
   6 -10   3    4.00    1.59
   6 -10   3    4.24    1.42
   6 -10   3    2.61    1.34
   4   9  -3    0.58    1.13
   4   9  -3    0.81    1.50
  -4  -9   3   -0.42    0.89
  -4  -9   3    1.14    0.40
   3   9  -3    2.21    1.45
   3   9  -3    1.83    1.60
  -3  -9   3    0.81    1.00
  -3  -9   3    1.23    0.71
  -3  -9   3    2.29    0.68
   2   9  -3    5.61    1.73
   2   9  -3    7.20    2.20
   2   9  -3    6.11    1.44
  -2  -9   3    5.70    1.11
  -2  -9   3    9.13    1.32
  -2  -9   3    6.84    1.42
   1   9  -3    1.88    1.06
   1   9  -3    1.01    0.97
   1   9  -3    0.74    0.66
  -1  -9   3   -0.12    0.86
  -1  -9   3    1.48    1.15
  -1  -9   3    1.73    0.81
  -1  -9   3    1.84    0.83
   0   9  -3   16.34    2.68
   0   9  -3   16.10    2.54
   0  -9   3   14.35    2.26
   0  -9   3   15.56    2.50
   0  -9   3   17.18    1.78
   0  -9   3   15.17    2.03
  -1   9  -3    5.96    1.57
  -1   9  -3    7.38    1.72
  -1   9  -3    6.60    1.24
   1  -9   3    6.33    1.32
   1  -9   3    6.74    1.44
   1  -9   3    6.97    1.71
  -2   9  -3   -0.09    1.06
  -2   9  -3    0.70    0.89
  -2   9  -3   -1.59    0.84
   2  -9   3   -0.04    0.83
   2  -9   3    0.12    0.71
   2  -9   3   -2.12    0.84
  -3   9  -3    1.72    1.47
  -3   9  -3    2.52    0.75
  -3   9  -3    2.95    1.27
  -3   9  -3   -0.04    1.16
  -3   9  -3    2.17    1.09
   3  -9   3    1.77    1.11
   3  -9   3    0.52    1.03
   3  -9   3    2.06    1.29
  -4   9  -3    9.12    2.09
  -4   9  -3    8.58    1.67
  -4   9  -3   10.68    2.58
   4  -9   3   12.06    2.15
   4  -9   3   12.20    2.28
   4  -9   3   11.43    1.97
  -5   9  -3    1.85    1.15
  -5   9  -3   -0.41    1.39
  -5   9  -3    1.07    0.98
  -5   9  -3   -0.27    0.81
   5  -9   3    1.04    0.83
   5  -9   3   -0.13    0.85
   5  -9   3    0.32    1.02
  -6   9  -3    1.13    1.19
  -6   9  -3    2.18    1.35
  -6   9  -3   -0.60    0.84
  -6   9  -3   -1.13    1.26
   6  -9   3    1.65    0.99
   6  -9   3    1.70    1.19
  -7   9  -3   -1.14    0.84
  -7   9  -3    0.99    1.32
  -7   9  -3    2.64    1.64
  -7   9  -3    1.20    1.51
   7  -9   3    4.88    1.89
   7  -9   3   -0.14    0.99
   7  -9   3   -0.73    1.09
   5   8  -3    7.27    1.69
   5   8  -3    3.84    1.85
  -5  -8   3    5.53    1.86
   4   8  -3    3.29    1.49
   4   8  -3    1.78    1.31
  -4  -8   3    0.67    0.78
  -4  -8   3    1.78    0.75
  -4  -8   3    1.53    0.40
  -4  -8   3    0.28    0.94
  -4  -8   3    1.70    0.72
   3   8  -3    4.40    1.39
   3   8  -3    0.25    0.96
  -3  -8   3    3.29    1.16
  -3  -8   3    1.58    0.58
  -3  -8   3    0.89    1.06
  -3  -8   3    2.17    0.62
   2   8  -3    1.58    0.84
   2   8  -3    3.70    1.08
   2   8  -3    2.28    1.14
  -2  -8   3    2.74    1.04
  -2  -8   3    2.74    0.77
  -2  -8   3    1.31    0.81
   1   8  -3    6.04    1.51
   1   8  -3    3.14    1.00
   1   8  -3    3.15    0.78
   1   8  -3    3.42    1.25
  -1  -8   3    2.40    1.05
  -1  -8   3    2.02    0.83
  -1  -8   3    4.18    0.93
  -1  -8   3    2.19    0.89
   0   8  -3   13.71    0.96
   0   8  -3   13.11    1.61
   0   8  -3   14.26    2.20
   0   8  -3   12.68    2.14
   0  -8   3   14.42    2.08
   0  -8   3   14.87    1.84
   0  -8   3   11.09    1.63
   0  -8   3   13.81    1.44
  -1   8  -3   66.77    3.26
  -1   8  -3   66.91    3.85
  -1   8  -3   76.93    3.89
   1  -8   3   70.66    3.39
   1  -8   3   61.54    3.51
   1  -8   3   69.55    3.40
  -2   8  -3   27.14    2.49
  -2   8  -3   25.40    2.27
  -2   8  -3   30.16    2.42
  -2   8  -3   22.89    2.32
   2  -8   3   24.75    2.31
   2  -8   3   25.60    2.22
   2  -8   3   26.47    2.27
  -3   8  -3   20.88    1.41
  -3   8  -3   17.07    2.40
  -3   8  -3   20.94    2.78
  -3   8  -3   20.51    1.98
  -3   8  -3   17.94    2.38
   3  -8   3   19.13    2.33
   3  -8   3   19.21    2.51
   3  -8   3   22.51    1.95
   3  -8   3   23.20    2.23
  -4   8  -3    1.11    0.95
  -4   8  -3    0.84    0.80
  -4   8  -3    0.64    0.97
  -4   8  -3    1.35    0.71
  -4   8  -3    0.12    0.68
   4  -8   3   -0.47    0.69
   4  -8   3   -0.87    0.73
   4  -8   3    0.20    0.87
  -5   8  -3    2.42    0.70
  -5   8  -3    7.83    1.84
  -5   8  -3    2.50    1.36
  -5   8  -3    3.28    1.08
  -5   8  -3    3.18    1.38
   5  -8   3    3.76    1.30
   5  -8   3    2.55    1.16
   5  -8   3    2.02    1.53
  -6   8  -3   20.06    3.06
  -6   8  -3   16.09    2.86
  -6   8  -3   15.72    2.64
  -6   8  -3   15.42    2.10
   6  -8   3   18.57    1.92
   6  -8   3   16.30    2.75
   6  -8   3   20.35    2.90
  -7   8  -3    1.15    1.23
  -7   8  -3    1.01    0.96
  -7   8  -3    1.77    0.69
   7  -8   3   -0.86    0.96
   7  -8   3    1.62    0.94
   7  -8   3    0.44    1.21
   6   7  -3    3.20    1.83
  -6  -7   3    2.78    1.32
  -6  -7   3    3.44    1.26
  -6  -7   3    3.02    0.93
   5   7  -3    0.15    1.03
   5   7  -3    1.23    0.96
  -5  -7   3   -0.27    0.64
  -5  -7   3    0.81    0.85
  -5  -7   3    1.94    1.02
   4   7  -3    2.06    0.98
   4   7  -3    3.90    1.34
  -4  -7   3    2.66    0.84
  -4  -7   3    4.20    1.25
  -4  -7   3    2.98    0.59
  -4  -7   3    3.73    0.98
  -4  -7   3    3.07    0.57
   3   7  -3   10.87    2.06
   3   7  -3   13.75    2.20
  -3  -7   3   13.03    1.99
  -3  -7   3    9.70    0.94
  -3  -7   3    9.81    0.92
  -3  -7   3   10.35    0.96
  -3  -7   3    9.55    0.93
   2   7  -3    1.63    0.90
   2   7  -3    0.76    0.25
   2   7  -3    0.86    0.71
   2   7  -3    1.20    1.07
  -2  -7   3    1.19    0.54
  -2  -7   3    0.28    0.80
  -2  -7   3   -0.07    0.69
  -2  -7   3    0.94    0.46
   1   7  -3    1.31    0.84
   1   7  -3    0.73    0.51
   1   7  -3    0.25    0.81
  -1  -7   3    0.25    0.65
  -1  -7   3    1.37    0.60
  -1  -7   3    0.00    0.49
  -1  -7   3    0.33    0.55
   0   7  -3   54.86    3.21
   0   7  -3   47.26    1.84
   0   7  -3   49.73    2.98
   0  -7   3   51.94    2.25
   0  -7   3   52.24    2.63
   0  -7   3   51.24    2.96
   0  -7   3   52.75    2.67
  -1   7  -3   11.34    1.96
  -1   7  -3    9.65    1.63
   1  -7   3    9.42    1.53
   1  -7   3    8.65    1.42
   1  -7   3    7.74    1.51
  -2   7  -3    0.79    0.35
  -2   7  -3    0.74    0.92
  -2   7  -3    0.47    0.79
  -2   7  -3    2.10    1.03
   2  -7   3    1.62    0.85
   2  -7   3   -0.16    0.60
   2  -7   3    1.83    0.99
  -3   7  -3   48.37    3.10
  -3   7  -3   49.86    2.12
  -3   7  -3   52.02    3.16
  -3   7  -3   48.41    3.24
   3  -7   3   49.03    3.07
   3  -7   3   49.77    3.04
   3  -7   3   52.49    3.13
   3  -7   3   49.27    2.85
   3  -7   3   50.66    2.72
  -4   7  -3   29.79    1.46
  -4   7  -3   37.43    2.90
  -4   7  -3   30.45    2.11
  -4   7  -3   34.30    2.79
  -4   7  -3   32.63    2.69
   4  -7   3   32.61    2.25
   4  -7   3   33.86    2.91
   4  -7   3   29.63    2.07
   4  -7   3   29.77    2.50
  -5   7  -3    1.24    0.71
  -5   7  -3    1.29    0.93
  -5   7  -3    2.32    0.75
  -5   7  -3    1.48    1.11
  -5   7  -3    0.97    1.07
   5  -7   3    2.41    0.80
   5  -7   3    0.59    1.00
   5  -7   3    3.45    1.10
  -6   7  -3    4.88    1.47
  -6   7  -3    3.02    0.80
   6  -7   3    1.85    1.08
   6  -7   3    1.51    1.10
   6  -7   3    2.41    0.88
  -7   7  -3    2.49    1.36
  -7   7  -3    2.09    0.61
   7  -7   3    2.39    1.26
   7  -7   3    2.16    0.80
   7  -7   3    3.53    1.43
  -8   7  -3    1.93    1.35
  -8   7  -3    5.75    1.87
   8  -7   3    1.52    0.97
   8  -7   3    1.60    0.70
   8  -7   3    0.80    1.36
   8  -7   3    0.73    1.22
   7   6  -3   -1.80    1.15
  -7  -6   3   -0.85    0.74
  -7  -6   3   -0.31    0.93
   6   6  -3   12.20    2.24
   6   6  -3    7.17    2.03
  -6  -6   3   10.93    1.72
  -6  -6   3   10.26    2.00
   5   6  -3   11.52    2.51
   5   6  -3   18.68    2.68
  -5  -6   3   13.11    0.77
  -5  -6   3   12.97    2.06
  -5  -6   3   17.59    2.15
  -5  -6   3   14.56    0.75
   4   6  -3    8.25    1.64
   4   6  -3    8.33    1.94
  -4  -6   3    9.89    1.37
  -4  -6   3    7.54    1.52
  -4  -6   3    8.82    1.62
  -4  -6   3    8.81    0.76
  -4  -6   3    9.41    0.81
   3   6  -3    1.09    0.89
   3   6  -3    0.15    0.61
  -3  -6   3   -0.59    0.62
  -3  -6   3    0.91    0.78
  -3  -6   3    0.01    0.42
  -3  -6   3    1.01    0.50
  -3  -6   3    0.52    0.74
  -3  -6   3   -0.53    0.41
  -3  -6   3    0.70    0.43
   2   6  -3    4.36    1.16
   2   6  -3    4.75    0.53
   2   6  -3    2.09    0.90
   2   6  -3    5.17    0.53
   2   6  -3    4.51    1.14
  -2  -6   3    5.22    1.24
  -2  -6   3    4.97    0.65
  -2  -6   3    3.80    0.86
  -2  -6   3    5.14    0.60
  -2  -6   3    5.93    0.89
  -2  -6   3    4.43    0.82
  -2  -6   3    4.38    1.04
   1   6  -3   11.03    1.14
   1   6  -3   16.21    2.08
   1   6  -3   12.39    1.23
   1   6  -3   12.94    1.82
   1   6  -3   12.99    1.02
  -1  -6   3   13.57    1.41
  -1  -6   3   15.03    1.10
  -1  -6   3   12.50    1.18
  -1  -6   3   11.44    1.65
   0   6  -3   58.27    3.07
   0   6  -3   61.85    2.07
   0  -6   3   59.11    2.87
   0  -6   3   60.76    3.00
   0  -6   3   56.88    2.12
   0  -6   3   62.23    2.67
   0  -6   3   63.26    2.73
   0  -6   3   61.27    3.40
  -1   6  -3    7.83    1.47
  -1   6  -3    6.12    1.26
  -1   6  -3    8.03    1.33
  -1   6  -3    5.33    0.52
  -1   6  -3    9.75    1.50
   1  -6   3    8.24    1.34
   1  -6   3    7.53    1.23
   1  -6   3    6.61    1.26
   1  -6   3    6.73    1.20
  -2   6  -3   19.18    1.08
  -2   6  -3   18.28    1.68
  -2   6  -3   19.25    0.89
  -2   6  -3   17.60    1.71
  -2   6  -3   17.17    1.76
  -2   6  -3   18.48    1.56
   2  -6   3   22.81    1.89
   2  -6   3   16.52    1.35
   2  -6   3   19.20    1.69
   2  -6   3   18.90    1.75
   2  -6   3   19.63    1.59
  -3   6  -3    7.61    1.55
  -3   6  -3    7.27    1.45
  -3   6  -3    8.09    1.48
  -3   6  -3    6.22    0.86
  -3   6  -3    5.66    1.00
  -3   6  -3    6.51    1.21
   3  -6   3    7.39    1.21
   3  -6   3    6.24    1.40
   3  -6   3    6.57    1.24
   3  -6   3    5.99    1.16
  -4   6  -3   16.43    2.32
  -4   6  -3   20.73    2.54
  -4   6  -3   17.71    1.41
  -4   6  -3   16.46    2.24
  -4   6  -3   14.52    1.32
   4  -6   3   16.54    1.42
   4  -6   3   18.48    1.84
   4  -6   3   15.66    2.07
   4  -6   3   18.08    1.58
  -5   6  -3   27.99    1.66
  -5   6  -3   32.28    2.68
  -5   6  -3   26.96    2.59
   5  -6   3   31.48    3.07
   5  -6   3   27.88    1.87
   5  -6   3   30.22    2.53
  -6   6  -3   34.82    1.64
  -6   6  -3   37.27    3.11
  -6   6  -3   37.39    3.07
   6  -6   3   30.05    1.82
   6  -6   3   32.55    2.94
  -7   6  -3    2.79    1.20
  -7   6  -3    1.53    1.28
   7  -6   3    2.15    1.25
   7  -6   3    0.05    1.15
   7  -6   3    1.77    0.65
  -8   6  -3    2.98    1.51
  -8   6  -3    2.84    1.54
   8  -6   3    1.28    1.19
   8  -6   3    1.25    1.32
   8  -6   3    2.43    1.51
   8   5  -3    0.97    1.57
  -8  -5   3   -0.04    0.33
  -8  -5   3   -0.24    1.00
   7   5  -3    5.75    1.96
   7   5  -3    8.36    3.08
  -7  -5   3    8.82    0.76
  -7  -5   3   11.75    2.02
  -7  -5   3    6.49    2.05
   6   5  -3    2.39    1.59
   6   5  -3   -0.86    0.94
  -6  -5   3    0.31    0.40
  -6  -5   3    0.45    0.35
  -6  -5   3    0.11    0.60
  -6  -5   3    0.72    0.82
   5   5  -3   45.99    4.11
   5   5  -3   42.22    3.03
  -5  -5   3   37.10    1.56
  -5  -5   3   31.84    2.36
  -5  -5   3   43.12    2.80
  -5  -5   3   39.04    1.48
   4   5  -3   77.61    3.67
   4   5  -3   76.77    4.03
   4   5  -3   78.65    3.82
  -4  -5   3   73.95    2.25
  -4  -5   3   70.84    3.67
  -4  -5   3   65.73    2.34
  -4  -5   3   68.67    3.65
  -4  -5   3   73.39    3.34
  -4  -5   3   67.91    2.95
   3   5  -3    1.04    0.73
   3   5  -3    1.02    0.83
   3   5  -3    0.52    0.61
  -3  -5   3    2.11    0.86
  -3  -5   3    1.18    0.45
  -3  -5   3    1.84    0.53
  -3  -5   3    0.91    0.67
  -3  -5   3   -0.38    0.51
  -3  -5   3    0.63    0.39
   2   5  -3   68.04    2.29
   2   5  -3   74.59    2.69
   2   5  -3   70.22    3.02
  -2  -5   3   71.68    2.36
  -2  -5   3   72.00    2.44
  -2  -5   3   73.66    3.87
  -2  -5   3   74.48    2.52
  -2  -5   3   71.97    3.12
  -2  -5   3   76.21    3.14
  -2  -5   3   72.64    3.69
  -2  -5   3   68.12    2.25
   1   5  -3    0.45    0.62
   1   5  -3    0.95    0.64
   1   5  -3    0.34    0.36
   1   5  -3    0.08    0.44
   1   5  -3    0.71    0.45
  -1  -5   3    0.03    0.25
  -1  -5   3    0.68    0.35
  -1  -5   3    0.18    0.65
  -1  -5   3    0.72    0.66
  -1  -5   3   -0.37    0.40
  -1  -5   3    0.73    0.45
  -1  -5   3   -0.83    0.45
   0   5  -3    8.46    1.10
   0   5  -3    7.20    1.19
   0   5  -3    7.43    1.37
   0   5  -3    8.74    1.20
   0   5  -3    9.60    1.09
   0  -5   3    5.81    0.98
   0  -5   3   10.50    1.32
   0  -5   3   11.30    1.56
   0  -5   3    7.82    1.23
  -1   5  -3    0.59    0.58
  -1   5  -3    1.30    0.73
  -1   5  -3    1.45    0.53
  -1   5  -3    1.51    0.31
  -1   5  -3    1.17    0.46
  -1   5  -3    1.30    0.62
  -1   5  -3    1.02    0.62
   1  -5   3    1.38    0.69
   1  -5   3    0.75    0.48
   1  -5   3    0.04    0.55
   1  -5   3    0.66    0.49
  -2   5  -3   20.58    1.77
  -2   5  -3   19.63    1.58
  -2   5  -3   20.46    1.48
  -2   5  -3   20.67    1.16
  -2   5  -3   22.45    1.76
  -2   5  -3   21.61    1.71
   2  -5   3   21.82    1.72
   2  -5   3   23.04    1.66
   2  -5   3   22.97    1.52
   2  -5   3   22.00    1.74
   2  -5   3   19.47    1.36
   2  -5   3   19.44    1.62
  -3   5  -3   11.18    1.05
  -3   5  -3   11.91    1.07
  -3   5  -3   13.84    1.87
  -3   5  -3    9.96    1.58
  -3   5  -3   11.93    1.65
  -3   5  -3   11.38    1.70
   3  -5   3   13.74    1.24
   3  -5   3   11.80    1.64
   3  -5   3   14.94    1.88
   3  -5   3   11.09    1.05
   3  -5   3    7.83    1.26
  -4   5  -3    1.00    0.44
  -4   5  -3    0.89    0.76
  -4   5  -3    1.17    0.70
  -4   5  -3    2.02    0.96
  -4   5  -3    0.31    0.57
   4  -5   3    1.13    0.80
   4  -5   3    0.74    0.59
   4  -5   3    1.85    0.90
  -5   5  -3   15.88    2.22
  -5   5  -3    9.51    1.75
  -5   5  -3   11.36    1.88
   5  -5   3   14.55    2.05
   5  -5   3   11.43    1.78
   5  -5   3   14.11    1.22
  -6   5  -3   82.58    4.34
   6  -5   3   80.82    4.08
   6  -5   3   87.88    2.66
   6  -5   3   77.56    4.41
  -7   5  -3    4.91    1.63
   7  -5   3    2.88    1.37
   7  -5   3    3.79    1.54
   7  -5   3    3.05    1.22
  -8   5  -3    6.29    1.90
  -8   5  -3    3.68    1.65
   8  -5   3    2.27    1.31
   8  -5   3    5.38    1.93
   8  -5   3    4.55    1.57
   8   4  -3    2.41    1.51
   8   4  -3   -0.46    0.88
   8   4  -3    0.75    1.44
  -8  -4   3   -0.02    0.87
  -8  -4   3    0.73    0.99
  -8  -4   3   -0.17    0.48
  -8  -4   3   -0.84    0.59
   7   4  -3    0.55    1.19
   7   4  -3   -0.12    0.74
   7   4  -3    2.43    1.41
  -7  -4   3   -0.12    0.44
  -7  -4   3   -0.50    0.49
  -7  -4   3   -0.58    0.47
  -7  -4   3    0.80    0.88
   6   4  -3    6.50    1.72
   6   4  -3    6.23    1.95
   6   4  -3   10.51    1.64
  -6  -4   3    9.30    1.80
  -6  -4   3    7.90    1.02
  -6  -4   3    8.55    1.48
  -6  -4   3    9.84    1.34
  -6  -4   3    8.66    1.05
   5   4  -3    5.32    1.61
   5   4  -3    4.36    1.33
  -5  -4   3    3.43    0.86
  -5  -4   3    1.50    0.80
  -5  -4   3    2.13    0.51
  -5  -4   3    3.77    1.18
  -5  -4   3    2.69    0.68
   4   4  -3    7.68    1.38
   4   4  -3   11.65    2.00
   4   4  -3   11.60    1.74
  -4  -4   3   12.00    1.50
  -4  -4   3   11.68    1.52
  -4  -4   3    9.68    0.95
  -4  -4   3    8.88    0.86
  -4  -4   3    9.98    1.32
  -4  -4   3   10.86    1.57
   3   4  -3    1.35    0.62
   3   4  -3    0.64    0.13
   3   4  -3    0.97    0.15
   3   4  -3    1.54    0.70
   3   4  -3    0.87    0.71
  -3  -4   3    1.34    0.60
  -3  -4   3    1.22    0.50
  -3  -4   3    0.67    0.41
  -3  -4   3    1.16    0.72
  -3  -4   3    1.40    0.42
  -3  -4   3    1.32    0.62
  -3  -4   3    1.43    0.52
  -3  -4   3    1.50    0.57
   2   4  -3   18.88    1.26
   2   4  -3   18.22    0.98
   2   4  -3   16.99    1.58
  -2  -4   3   18.32    1.54
  -2  -4   3   19.59    1.16
  -2  -4   3   19.01    1.19
  -2  -4   3   19.73    1.57
  -2  -4   3   20.38    1.22
  -2  -4   3   19.47    1.37
  -2  -4   3   18.63    1.13
  -2  -4   3   20.24    1.81
  -2  -4   3   17.80    1.45
   1   4  -3    6.96    1.21
   1   4  -3    5.61    1.00
   1   4  -3    5.13    0.88
   1   4  -3    7.68    0.89
   1   4  -3    5.98    0.98
  -1  -4   3    7.66    1.16
  -1  -4   3    4.67    0.77
  -1  -4   3    8.07    1.33
  -1  -4   3    8.06    1.00
  -1  -4   3    5.51    0.42
  -1  -4   3    5.29    1.02
   0   4  -3   11.01    0.97
   0   4  -3   12.03    1.47
   0   4  -3   11.92    1.15
   0   4  -3   11.58    1.11
   0   4  -3    9.24    1.22
   0   4  -3   12.40    1.00
   0  -4   3   10.45    1.35
   0  -4   3   12.23    1.45
   0  -4   3   10.48    1.07
   0  -4   3   11.58    1.38
   0  -4   3   10.85    1.43
   0  -4   3   12.17    1.11
  -1   4  -3   13.68    1.12
  -1   4  -3   10.97    0.79
  -1   4  -3   12.55    1.11
  -1   4  -3   12.53    1.49
  -1   4  -3   12.71    1.52
  -1   4  -3   13.66    1.32
   1  -4   3   11.83    1.22
   1  -4   3   14.76    1.30
   1  -4   3   14.12    1.28
   1  -4   3   13.49    1.28
   1  -4   3   12.86    1.11
  -2   4  -3  225.69    4.97
  -2   4  -3  221.69    5.72
  -2   4  -3  230.20    4.94
  -2   4  -3  237.14    6.07
  -2   4  -3  236.51    5.91
   2  -4   3  240.11    5.36
   2  -4   3  232.76    4.96
   2  -4   3  244.40    5.88
   2  -4   3  245.15    5.80
   2  -4   3  235.18    5.26
   2  -4   3  234.28    5.80
  -3   4  -3   22.05    1.75
  -3   4  -3   19.20    1.47
  -3   4  -3   19.25    1.55
  -3   4  -3   22.86    1.87
   3  -4   3   20.84    1.61
   3  -4   3   20.81    1.63
   3  -4   3   18.80    1.10
   3  -4   3   18.94    1.59
   3  -4   3   18.64    1.58
   3  -4   3   23.36    1.43
  -4   4  -3   44.88    2.59
  -4   4  -3   50.69    3.23
  -4   4  -3   46.60    2.79
  -4   4  -3   47.98    1.57
   4  -4   3   53.76    3.20
   4  -4   3   46.98    1.95
   4  -4   3   50.41    2.74
   4  -4   3   48.10    2.80
  -5   4  -3   49.25    3.07
  -5   4  -3   45.23    2.87
  -5   4  -3   52.05    2.94
   5  -4   3   45.54    1.77
   5  -4   3   47.64    2.85
   5  -4   3   48.75    3.19
  -6   4  -3    1.50    1.04
  -6   4  -3    0.83    0.73
   6  -4   3   -0.50    0.61
   6  -4   3    0.48    0.98
   6  -4   3   -0.16    0.69
  -7   4  -3    4.96    1.38
  -7   4  -3    3.05    1.30
  -7   4  -3    3.98    1.18
   7  -4   3    4.00    1.46
   7  -4   3    1.58    1.16
   7  -4   3    3.21    1.21
  -8   4  -3   10.52    3.27
  -8   4  -3   12.04    2.21
  -8   4  -3   11.49    2.24
   8  -4   3   13.02    2.74
   8  -4   3    8.47    1.91
   8  -4   3   11.57    2.46
  -9   4  -3    1.18    1.35
  -9   4  -3    2.38    1.54
   9  -4   3    1.13    1.75
   9  -4   3   -0.42    1.35
   9   3  -3   -0.57    1.45
   9   3  -3    1.33    1.32
   9   3  -3    0.16    1.74
  -9  -3   3   -1.80    0.56
  -9  -3   3   -1.89    0.90
   8   3  -3    2.51    1.18
   8   3  -3   -2.70    1.24
   8   3  -3   -0.56    1.19
  -8  -3   3   -0.11    0.86
  -8  -3   3    0.29    0.63
  -8  -3   3    0.07    0.55
   7   3  -3   19.06    3.26
   7   3  -3   16.14    2.56
  -7  -3   3   15.29    2.37
  -7  -3   3   14.52    1.13
  -7  -3   3   16.12    1.40
  -7  -3   3   13.06    2.48
   6   3  -3    3.89    2.05
   6   3  -3    5.20    1.47
   6   3  -3    3.16    1.02
  -6  -3   3    4.67    1.31
  -6  -3   3    4.78    0.93
  -6  -3   3    5.09    0.94
  -6  -3   3    3.70    0.86
   5   3  -3   74.27    2.99
   5   3  -3   70.77    3.95
   5   3  -3   65.22    4.02
  -5  -3   3   69.31    2.41
  -5  -3   3   69.26    3.43
  -5  -3   3   71.71    2.63
  -5  -3   3   69.34    3.46
  -5  -3   3   74.06    2.91
  -5  -3   3   73.10    2.83
   4   3  -3   89.83    4.06
   4   3  -3   86.03    2.97
   4   3  -3   91.19    3.65
   4   3  -3   83.24    1.75
   4   3  -3   86.23    1.77
  -4  -3   3   83.86    2.82
  -4  -3   3   86.18    2.52
  -4  -3   3   80.82    3.31
  -4  -3   3   85.84    3.47
  -4  -3   3   84.00    3.38
  -4  -3   3   89.49    2.96
  -4  -3   3   86.96    3.31
  -4  -3   3   91.82    2.67
   3   3  -3    4.71    1.20
   3   3  -3    4.31    0.51
   3   3  -3    4.94    0.50
   3   3  -3    5.48    1.05
   3   3  -3    5.38    1.00
   3   3  -3    5.89    1.00
  -3  -3   3    6.02    0.95
  -3  -3   3    4.72    0.73
  -3  -3   3    5.64    0.94
  -3  -3   3    5.54    0.82
  -3  -3   3    5.45    1.13
  -3  -3   3    4.26    0.85
  -3  -3   3    4.23    0.90
  -3  -3   3    5.34    0.71
   2   3  -3    5.55    0.72
   2   3  -3    5.68    0.66
   2   3  -3    4.93    0.74
   2   3  -3    5.94    0.96
   2   3  -3    5.83    1.02
  -2  -3   3    5.29    0.77
  -2  -3   3    5.52    0.95
  -2  -3   3    7.34    0.86
  -2  -3   3    6.08    0.77
  -2  -3   3    5.81    1.10
  -2  -3   3    4.77    0.87
  -2  -3   3    6.52    1.10
  -2  -3   3    5.72    0.86
  -2  -3   3    5.41    0.74
   1   3  -3    0.97    0.51
   1   3  -3    0.98    0.45
   1   3  -3    0.83    0.33
   1   3  -3    0.41    0.46
   1   3  -3    0.36    0.19
   1   3  -3    1.24    0.53
  -1  -3   3    1.17    0.58
  -1  -3   3    0.86    0.45
  -1  -3   3    1.30    0.37
  -1  -3   3    0.31    0.37
  -1  -3   3    1.10    0.47
  -1  -3   3    0.93    0.54
   0   3  -3  417.64    7.71
   0   3  -3  432.21    7.55
   0   3  -3  414.93    7.86
   0   3  -3  434.46    8.48
   0  -3   3  438.27    7.97
   0  -3   3  430.01    7.77
   0  -3   3  440.64    7.68
   0  -3   3  425.47    7.77
   0  -3   3  406.76    7.57
   0  -3   3  419.48    6.84
   0  -3   3  421.55    7.86
  -1   3  -3   22.38    1.43
  -1   3  -3   24.43    1.21
  -1   3  -3   22.22    1.36
  -1   3  -3   22.14    1.31
  -1   3  -3   24.80    1.45
  -1   3  -3   23.60    1.39
  -1   3  -3   24.31    1.58
   1  -3   3   23.38    1.49
   1  -3   3   24.75    1.25
   1  -3   3   25.59    1.57
   1  -3   3   23.67    1.46
   1  -3   3   24.74    1.13
   1  -3   3   23.09    1.31
  -2   3  -3   53.27    2.40
  -2   3  -3   55.50    2.02
  -2   3  -3   58.98    2.59
  -2   3  -3   53.51    2.18
  -2   3  -3   55.57    2.28
  -2   3  -3   54.41    2.33
  -2   3  -3   56.79    1.74
   2  -3   3   52.87    2.41
   2  -3   3   52.84    2.01
   2  -3   3   53.23    2.29
   2  -3   3   52.52    2.37
   2  -3   3   55.30    1.73
   2  -3   3   53.35    2.20
  -3   3  -3   38.15    2.19
  -3   3  -3   40.08    1.63
  -3   3  -3   39.51    2.19
  -3   3  -3   42.61    2.36
  -3   3  -3   40.78    2.24
   3  -3   3   36.97    2.04
   3  -3   3   42.91    2.26
   3  -3   3   42.43    1.67
   3  -3   3   41.02    1.24
   3  -3   3   41.95    2.33
   3  -3   3   36.13    2.10
  -4   3  -3   64.42    2.99
  -4   3  -3   65.58    2.91
  -4   3  -3   62.18    3.08
  -4   3  -3   64.32    3.19
   4  -3   3   65.86    3.31
   4  -3   3   63.29    2.88
   4  -3   3   61.81    2.87
   4  -3   3   65.91    2.87
  -5   3  -3   27.73    2.21
  -5   3  -3   27.86    2.27
  -5   3  -3   24.97    2.01
   5  -3   3   29.97    2.09
   5  -3   3   24.48    2.32
   5  -3   3   30.33    1.58
   5  -3   3   27.62    2.39
  -6   3  -3   66.50    3.63
  -6   3  -3   64.46    3.44
  -6   3  -3   60.47    3.49
   6  -3   3   61.60    3.71
   6  -3   3   68.18    4.09
   6  -3   3   64.01    4.08
  -7   3  -3    0.88    1.02
  -7   3  -3    2.55    1.11
  -7   3  -3    1.53    1.03
   7  -3   3   -0.01    1.10
   7  -3   3    3.21    1.31
   7  -3   3    2.36    0.94
  -8   3  -3   -1.18    0.70
  -8   3  -3    2.29    1.26
  -8   3  -3   -0.46    0.70
   8  -3   3   -0.01    1.12
   8  -3   3    0.71    1.22
  -9   3  -3    0.27    1.39
  -9   3  -3    0.76    1.06
   9  -3   3   -0.81    1.16
   9  -3   3    5.02    1.88
   9   2  -3    0.21    1.23
   9   2  -3   -1.23    1.29
  -9  -2   3    0.85    1.22
  -9  -2   3   -0.60    0.62
   8   2  -3    5.07    1.54
   8   2  -3    4.68    1.29
  -8  -2   3    6.19    1.23
  -8  -2   3    5.28    1.22
  -8  -2   3    3.88    1.44
   7   2  -3   11.36    2.08
   7   2  -3   10.17    1.22
   7   2  -3   11.28    1.65
   7   2  -3   11.76    2.30
  -7  -2   3   10.22    1.42
  -7  -2   3   11.81    2.05
  -7  -2   3    9.98    1.35
   6   2  -3    1.63    0.43
   6   2  -3    3.19    1.24
   6   2  -3    1.64    0.74
  -6  -2   3    1.98    0.62
  -6  -2   3    2.82    0.63
  -6  -2   3    2.81    0.83
  -6  -2   3    2.80    1.04
   5   2  -3   15.81    1.00
   5   2  -3   14.39    1.29
   5   2  -3   17.42    1.86
   5   2  -3   15.89    2.35
  -5  -2   3   13.29    1.38
  -5  -2   3   16.31    2.27
  -5  -2   3   15.71    1.60
  -5  -2   3   16.82    1.27
  -5  -2   3   17.05    1.15
   4   2  -3   37.98    1.80
   4   2  -3   37.11    1.91
   4   2  -3   36.78    2.47
   4   2  -3   37.97    2.30
   4   2  -3   34.29    1.64
   4   2  -3   37.80    1.57
  -4  -2   3   31.74    2.03
  -4  -2   3   37.68    1.72
  -4  -2   3   38.24    2.20
  -4  -2   3   36.56    1.67
  -4  -2   3   35.58    2.03
  -4  -2   3   35.04    1.63
  -4  -2   3   37.22    2.24
  -4  -2   3   37.53    1.63
  -4  -2   3   33.37    2.01
   3   2  -3  143.26    4.58
   3   2  -3  138.70    3.12
   3   2  -3  135.79    3.43
   3   2  -3  138.90    3.51
   3   2  -3  138.04    3.10
   3   2  -3  145.51    4.54
  -3  -2   3  140.48    3.34
  -3  -2   3  139.81    3.86
  -3  -2   3  136.14    4.08
  -3  -2   3  141.52    3.51
  -3  -2   3  132.94    3.35
  -3  -2   3  141.62    3.05
   2   2  -3  119.67    2.79
   2   2  -3  114.80    3.60
   2   2  -3  117.76    3.10
   2   2  -3  122.47    3.45
   2   2  -3  117.28    2.90
  -2  -2   3  109.49    3.52
  -2  -2   3  120.24    3.12
  -2  -2   3  112.20    3.36
  -2  -2   3  122.49    3.03
  -2  -2   3  118.61    3.08
  -2  -2   3  120.80    2.92
   1   2  -3  330.85    6.00
   1   2  -3  326.88    6.19
   1   2  -3  327.61    5.81
   1   2  -3  330.43    6.07
   1   2  -3  334.07    6.12
   1   2  -3  325.37    4.96
  -1  -2   3  330.05    5.67
  -1  -2   3  323.74    5.90
  -1  -2   3  321.49    6.18
  -1  -2   3  324.40    6.03
  -1  -2   3  343.59    6.16
   0   2  -3  724.50   10.94
   0   2  -3  733.61   11.37
   0   2  -3  723.01   11.60
   0  -2   3  731.33   11.58
   0  -2   3  718.14   10.88
   0  -2   3  731.93   11.29
   0  -2   3  721.05   11.47
  -1   2  -3  115.45    3.69
  -1   2  -3  125.23    2.97
  -1   2  -3  115.01    3.04
  -1   2  -3  117.72    2.85
  -1   2  -3  121.25    3.20
  -1   2  -3  116.00    3.13
  -1   2  -3  116.47    2.90
   1  -2   3  114.31    2.93
   1  -2   3  122.92    3.24
   1  -2   3  116.68    3.26
   1  -2   3  125.06    3.16
   1  -2   3  126.08    2.63
  -2   2  -3   35.84    1.94
  -2   2  -3   39.92    1.85
  -2   2  -3   38.61    2.25
  -2   2  -3   38.26    1.48
  -2   2  -3   39.63    1.87
  -2   2  -3   39.25    1.89
  -2   2  -3   37.32    1.95
   2  -2   3   36.08    1.73
   2  -2   3   37.86    1.04
   2  -2   3   39.00    1.49
   2  -2   3   36.58    1.90
   2  -2   3   40.14    1.89
   2  -2   3   35.61    1.82
  -3   2  -3  185.61    4.75
  -3   2  -3  179.23    5.11
  -3   2  -3  187.14    4.99
  -3   2  -3  180.23    4.73
  -3   2  -3  187.73    3.74
   3  -2   3  186.74    3.67
   3  -2   3  178.27    4.71
   3  -2   3  177.21    5.32
   3  -2   3  187.25    4.77
   3  -2   3  191.09    4.71
   3  -2   3  186.45    5.33
  -4   2  -3   51.74    1.52
  -4   2  -3   53.57    2.62
  -4   2  -3   50.51    2.85
  -4   2  -3   53.11    2.69
   4  -2   3   53.23    2.48
   4  -2   3   50.80    3.76
   4  -2   3   52.96    2.49
   4  -2   3   59.92    3.24
   4  -2   3   60.91    3.20
  -5   2  -3  108.02    4.15
  -5   2  -3   93.89    4.48
  -5   2  -3   95.28    3.72
   5  -2   3  104.64    4.67
   5  -2   3  101.82    4.75
  -6   2  -3   37.73    2.68
  -6   2  -3   32.71    2.47
  -6   2  -3   32.30    2.34
   6  -2   3   31.42    2.83
   6  -2   3   29.82    2.80
   6  -2   3   31.48    2.18
  -7   2  -3   11.49    1.75
  -7   2  -3    9.30    1.61
  -7   2  -3   14.82    2.29
   7  -2   3    6.04    1.14
   7  -2   3    8.74    2.19
   7  -2   3   11.28    2.26
  -8   2  -3    3.23    1.30
  -8   2  -3    2.72    1.06
  -8   2  -3    1.01    1.04
   8  -2   3    0.79    1.27
   8  -2   3    2.56    1.36
  -9   2  -3    3.23    1.50
  -9   2  -3    2.58    1.36
   9  -2   3    2.05    1.73
   9  -2   3    1.08    1.46
   9   1  -3    5.50    1.86
   9   1  -3    8.24    2.54
   9   1  -3    8.44    1.88
  -9  -1   3    6.35    1.47
  -9  -1   3    7.06    2.09
   8   1  -3   -0.30    1.32
   8   1  -3    0.83    0.65
   8   1  -3   -0.40    1.10
  -8  -1   3    0.29    0.68
  -8  -1   3    2.61    1.35
  -8  -1   3    2.21    1.58
   7   1  -3    0.37    1.37
   7   1  -3   -0.23    0.82
   7   1  -3   -0.02    0.56
  -7  -1   3    1.09    0.89
  -7  -1   3   -0.81    0.45
  -7  -1   3    2.01    0.70
   6   1  -3   15.48    2.48
   6   1  -3   12.42    2.06
   6   1  -3   14.24    1.35
  -6  -1   3   12.52    1.58
  -6  -1   3   12.61    1.58
  -6  -1   3    9.84    1.66
   5   1  -3   11.88    1.93
   5   1  -3   10.32    0.97
   5   1  -3   11.44    1.07
   5   1  -3    9.68    0.83
   5   1  -3   11.66    1.81
   5   1  -3   10.40    1.01
  -5  -1   3   12.67    1.19
  -5  -1   3   11.41    1.15
  -5  -1   3   13.66    1.84
  -5  -1   3   12.35    1.90
  -5  -1   3   10.84    0.82
   4   1  -3    3.19    1.10
   4   1  -3    3.61    0.75
   4   1  -3    3.52    0.67
   4   1  -3    2.98    0.92
   4   1  -3    2.58    0.59
  -4  -1   3    3.59    0.69
  -4  -1   3    2.89    0.58
  -4  -1   3    3.65    0.88
  -4  -1   3    3.65    0.78
  -4  -1   3    3.30    0.91
  -4  -1   3    2.32    0.85
   3   1  -3    5.00    0.49
   3   1  -3    6.00    1.17
   3   1  -3    5.11    0.76
   3   1  -3    4.67    0.92
   3   1  -3    5.94    0.77
  -3  -1   3    4.57    1.19
  -3  -1   3    5.17    0.94
  -3  -1   3    4.56    0.78
  -3  -1   3    4.87    0.92
  -3  -1   3    6.38    0.93
  -3  -1   3    7.00    1.09
  -3  -1   3    6.82    0.92
   2   1  -3  148.19    4.08
   2   1  -3  149.87    3.37
   2   1  -3  156.86    3.42
   2   1  -3  153.67    3.49
   2   1  -3  156.72    4.19
  -2  -1   3  150.50    3.68
  -2  -1   3  150.02    3.52
  -2  -1   3  153.43    3.47
  -2  -1   3  151.86    3.70
   1   1  -3  117.21    2.87
   1   1  -3  117.57    2.79
   1   1  -3  118.99    2.82
   1   1  -3  117.05    2.91
   1   1  -3  112.48    2.68
  -1  -1   3  117.23    2.95
  -1  -1   3  114.56    3.22
  -1  -1   3  115.93    2.78
  -1  -1   3  115.59    2.82
  -1  -1   3  113.07    2.10
   0   1  -3  367.73    6.47
   0   1  -3  378.27    5.90
   0   1  -3  375.06    6.34
   0   1  -3  377.54    6.68
   0   1  -3  368.83    6.55
   0   1  -3  375.35    6.24
   0  -1   3  366.24    6.99
   0  -1   3  364.98    5.88
   0  -1   3  371.07    6.31
   0  -1   3  379.10    6.69
   0  -1   3  382.69    6.55
   0  -1   3  363.70    6.23
  -1   1  -3   93.91    2.44
  -1   1  -3   88.37    2.29
  -1   1  -3   91.77    2.03
  -1   1  -3   92.35    2.69
  -1   1  -3   92.13    2.59
  -1   1  -3   86.78    2.69
   1  -1   3   89.50    2.73
   1  -1   3   92.29    2.30
   1  -1   3   90.83    2.74
   1  -1   3   90.91    2.58
   1  -1   3   99.07    2.94
   1  -1   3   94.66    2.40
   1  -1   3   92.46    2.64
  -2   1  -3    5.86    1.12
  -2   1  -3    4.81    0.95
  -2   1  -3    4.98    0.91
  -2   1  -3    3.85    0.72
  -2   1  -3    5.12    0.81
  -2   1  -3    5.34    0.90
   2  -1   3    5.20    0.84
   2  -1   3    4.65    0.60
   2  -1   3    4.32    0.91
   2  -1   3    5.15    0.83
   2  -1   3    4.81    0.92
   2  -1   3    5.05    0.75
  -3   1  -3    7.44    1.05
  -3   1  -3    5.92    0.55
  -3   1  -3    6.62    0.98
  -3   1  -3    6.29    1.05
  -3   1  -3    3.90    0.99
   3  -1   3    6.28    1.06
   3  -1   3    6.09    0.95
   3  -1   3    7.32    1.05
   3  -1   3    6.23    1.32
   3  -1   3    5.92    0.54
   3  -1   3    5.78    1.19
  -4   1  -3   17.60    0.79
  -4   1  -3   19.92    1.58
  -4   1  -3   15.99    1.70
  -4   1  -3   19.49    1.52
  -4   1  -3   20.14    1.46
   4  -1   3   19.49    1.39
   4  -1   3   17.33    1.60
   4  -1   3   19.86    2.02
   4  -1   3   19.04    1.36
   4  -1   3   17.72    1.85
  -5   1  -3    5.46    1.20
  -5   1  -3    7.01    1.13
  -5   1  -3    6.02    1.30
   5  -1   3    5.88    1.39
   5  -1   3    7.56    1.79
  -6   1  -3    1.51    0.90
  -6   1  -3    1.62    0.76
  -6   1  -3    0.84    0.74
   6  -1   3   -0.69    0.77
  -7   1  -3    0.33    0.70
  -7   1  -3   -1.57    0.73
  -7   1  -3    1.44    0.81
   7  -1   3   -0.29    0.94
   7  -1   3   -1.55    0.82
  -8   1  -3   -0.91    0.87
  -8   1  -3    0.37    0.90
  -8   1  -3    0.17    0.88
   8  -1   3   -0.91    0.76
   8  -1   3    1.14    1.33
   8  -1   3   -1.30    1.43
   9   0  -3   10.67    2.80
   9   0  -3   12.87    3.15
   9   0  -3   12.50    2.02
  -9   0   3   12.63    1.86
  -9   0   3   14.41    2.41
   8   0  -3    3.08    1.51
   8   0  -3    4.85    1.71
  -8   0   3    4.80    1.19
   7   0  -3    1.14    1.11
   7   0  -3    0.47    0.67
   7   0  -3    0.90    1.19
  -7   0   3    0.17    0.61
  -7   0   3    1.23    0.89
  -7   0   3    0.32    0.73
   6   0  -3   34.01    2.01
   6   0  -3   36.26    1.53
   6   0  -3   37.81    2.89
   6   0  -3   38.96    3.03
  -6   0   3   32.55    2.11
  -6   0   3   35.55    2.42
  -6   0   3   35.08    1.27
  -6   0   3   32.73    2.15
   5   0  -3   40.97    2.69
   5   0  -3   42.58    1.99
   5   0  -3   44.42    2.07
   5   0  -3   40.16    1.52
   5   0  -3   44.01    2.85
  -5   0   3   44.45    3.01
  -5   0   3   40.26    2.40
  -5   0   3   42.10    2.21
  -5   0   3   44.86    2.29
   4   0  -3   78.07    3.31
   4   0  -3   77.03    2.29
   4   0  -3   76.64    2.19
   4   0  -3   74.16    3.33
   4   0  -3   78.27    3.00
   4   0  -3   77.74    2.67
  -4   0   3   73.72    2.94
  -4   0   3   70.14    2.69
  -4   0   3   72.65    2.71
  -4   0   3   73.78    3.11
   3   0  -3  344.71    6.58
   3   0  -3  351.82    6.67
   3   0  -3  349.43    7.23
   3   0  -3  351.59    6.57
   3   0  -3  345.42    7.42
  -3   0   3  345.29    6.80
  -3   0   3  356.55    6.53
  -3   0   3  347.96    6.95
  -3   0   3  347.08    7.51
  -3   0   3  351.70    6.72
  -3   0   3  342.78    7.19
   2   0  -3  304.01    5.71
   2   0  -3  301.76    6.33
   2   0  -3  300.50    6.05
   2   0  -3  303.24    5.80
   2   0  -3  307.27    5.43
  -2   0   3  304.91    6.10
  -2   0   3  295.73    5.67
  -2   0   3  301.09    5.84
  -2   0   3  301.58    5.41
  -2   0   3  302.49    5.75
   1   0  -3   30.96    1.48
   1   0  -3   33.14    1.44
   1   0  -3   30.35    1.27
  -1   0   3   31.57    1.39
  -1   0   3   32.04    1.30
  -1   0   3   32.52    1.45
  -1   0   3   33.79    1.51
  -1   0   3   32.59    1.13
   0   0  -3   20.19    1.02
   0   0  -3   19.90    1.19
   0   0  -3   17.63    1.04
   0   0  -3   17.69    1.19
   0   0  -3   20.30    1.07
   0   0   3   21.80    1.13
   0   0   3   21.03    1.01
   0   0   3   18.63    1.18
   0   0   3   18.33    1.08
   0   0   3   19.86    1.07
   0   0   3   18.98    0.56
  -1   0  -3   75.99    2.23
  -1   0  -3   76.12    2.06
  -1   0  -3   71.89    2.54
  -1   0  -3   76.32    1.87
  -1   0  -3   75.60    2.33
  -1   0  -3   74.30    2.66
  -1   0  -3   76.08    2.66
   1   0   3   75.42    2.26
   1   0   3   77.77    2.07
   1   0   3   71.82    2.72
   1   0   3   77.49    2.21
   1   0   3   79.16    1.85
   1   0   3   77.83    2.63
   1   0   3   79.83    2.69
  -2   0  -3  696.85   12.49
  -2   0  -3  720.80   12.72
  -2   0  -3  693.31   11.53
  -2   0  -3  725.60   11.08
  -2   0  -3  723.93   11.39
  -2   0  -3  704.33   12.74
  -2   0  -3  700.60   10.77
  -2   0  -3  716.56   12.60
   2   0   3  729.28   13.05
   2   0   3  710.49   11.25
   2   0   3  711.36   10.97
   2   0   3  731.27   11.36
   2   0   3  720.54   10.39
   2   0   3  704.36   12.66
  -3   0  -3  233.10    4.46
  -3   0  -3  222.69    4.91
  -3   0  -3  219.27    6.09
  -3   0  -3  214.29    5.02
  -3   0  -3  211.88    4.83
  -3   0  -3  219.11    6.02
  -3   0  -3  210.84    6.07
   3   0   3  218.83    4.71
   3   0   3  215.57    4.78
   3   0   3  214.43    6.32
   3   0   3  216.49    3.72
   3   0   3  219.11    6.11
  -4   0  -3  207.00    3.83
  -4   0  -3  213.68    5.27
  -4   0  -3  211.58    5.04
  -4   0  -3  204.04    6.23
   4   0   3  210.73    6.92
   4   0   3  203.87    4.69
   4   0   3  211.95    5.18
   4   0   3  218.64    7.55
  -5   0  -3   14.69    1.45
  -5   0  -3   12.95    1.28
  -5   0  -3   13.12    1.77
  -5   0  -3   14.61    1.94
   5   0   3   17.27    2.61
   5   0   3   15.59    2.25
   5   0   3   12.70    2.25
   5   0   3   15.59    1.45
  -6   0  -3   23.41    1.80
  -6   0  -3   21.77    1.88
  -6   0  -3   21.44    2.00
   6   0   3   21.58    3.08
  -7   0  -3    1.38    0.82
  -7   0  -3    1.26    0.82
  -7   0  -3    0.00    0.67
   7   0   3    1.11    1.56
   7   0   3    0.20    1.09
   7   0   3   -0.42    0.62
  -8   0  -3    1.60    0.94
  -8   0  -3    3.54    1.85
  -8   0  -3    2.35    1.03
   8   0   3    0.74    1.22
   8   0   3    3.41    1.45
   9  -1  -3   10.38    2.57
   9  -1  -3    9.73    1.84
   9  -1  -3    8.93    2.41
  -9   1   3    8.71    1.81
  -9   1   3    9.75    2.13
   8  -1  -3    0.75    1.01
   8  -1  -3    0.94    0.85
   8  -1  -3   -0.03    0.59
   8  -1  -3    1.07    1.23
  -8   1   3    1.11    1.07
  -8   1   3    0.55    1.00
  -8   1   3    1.41    1.10
   7  -1  -3    3.91    1.34
   7  -1  -3   -0.31    0.62
   7  -1  -3    0.27    1.04
   7  -1  -3   -0.18    0.65
  -7   1   3    1.03    0.83
  -7   1   3    1.93    0.97
  -7   1   3    0.28    0.71
   6  -1  -3   17.04    2.46
   6  -1  -3   17.24    2.47
   6  -1  -3   15.16    1.48
   6  -1  -3   14.77    0.92
  -6   1   3   13.40    1.77
  -6   1   3   19.70    1.76
  -6   1   3   13.75    1.89
   5  -1  -3   -0.03    0.29
   5  -1  -3   -1.14    0.42
   5  -1  -3   -0.13    0.43
   5  -1  -3   -0.20    0.30
   5  -1  -3   -0.13    0.57
  -5   1   3    0.75    0.49
  -5   1   3    0.39    0.54
   4  -1  -3   60.37    2.60
   4  -1  -3   64.49    2.03
   4  -1  -3   61.99    2.57
   4  -1  -3   70.83    3.20
   4  -1  -3   63.25    2.86
  -4   1   3   69.36    2.08
  -4   1   3   65.00    2.67
  -4   1   3   70.21    2.77
  -4   1   3   74.56    3.64
  -4   1   3   70.06    2.80
   3  -1  -3   31.14    1.61
   3  -1  -3   29.96    1.88
   3  -1  -3   32.54    1.70
   3  -1  -3   33.23    1.96
  -3   1   3   28.63    1.62
  -3   1   3   31.87    1.90
  -3   1   3   32.98    1.77
  -3   1   3   33.08    1.74
  -3   1   3   32.68    1.43
   2  -1  -3   66.81    2.05
   2  -1  -3   65.08    2.34
   2  -1  -3   70.00    2.09
   2  -1  -3   66.31    2.26
   2  -1  -3   70.48    2.55
  -2   1   3   69.68    2.54
  -2   1   3   67.95    2.09
  -2   1   3   66.51    2.59
  -2   1   3   66.09    2.36
   1  -1  -3  406.58    7.38
   1  -1  -3  396.03    6.93
   1  -1  -3  383.80    6.73
  -1   1   3  388.82    6.78
  -1   1   3  389.15    6.95
  -1   1   3  386.49    7.00
  -1   1   3  395.59    7.32
  -1   1   3  391.52    6.09
   0  -1  -3    7.34    0.83
   0  -1  -3    6.70    0.79
   0  -1  -3    6.77    0.94
   0  -1  -3    7.60    0.86
   0  -1  -3    4.76    0.81
   0   1   3    6.65    0.27
   0   1   3    7.16    1.13
   0   1   3    6.88    0.64
   0   1   3    7.15    0.70
   0   1   3    7.28    0.99
   0   1   3    6.98    0.66
  -1  -1  -3    6.38    0.42
  -1  -1  -3    8.04    1.23
  -1  -1  -3    9.49    1.24
  -1  -1  -3    6.31    0.76
  -1  -1  -3    6.56    0.81
  -1  -1  -3    5.63    0.42
  -1  -1  -3    6.78    0.80
  -1  -1  -3    7.81    1.11
   1   1   3    8.29    1.13
   1   1   3    5.68    0.99
   1   1   3    6.84    0.83
   1   1   3    6.83    0.42
   1   1   3    7.04    0.70
  -2  -1  -3  112.79    2.79
  -2  -1  -3  114.27    3.86
  -2  -1  -3  110.99    3.83
  -2  -1  -3  109.72    2.54
  -2  -1  -3  112.76    2.60
  -2  -1  -3  108.17    2.82
  -2  -1  -3  114.30    4.06
  -2  -1  -3  107.93    2.97
  -2  -1  -3  109.77    2.78
   2   1   3  111.38    4.15
   2   1   3  108.06    2.62
   2   1   3  110.03    2.81
   2   1   3  104.94    3.84
   2   1   3  106.11    2.67
  -3  -1  -3    6.73    0.91
  -3  -1  -3    7.06    0.70
  -3  -1  -3    8.02    0.80
  -3  -1  -3    6.94    0.91
  -3  -1  -3    7.11    1.32
  -3  -1  -3    6.37    0.88
  -3  -1  -3    7.40    1.37
  -3  -1  -3    6.69    0.79
  -3  -1  -3    6.17    1.40
   3   1   3    6.77    1.12
   3   1   3    6.16    1.38
   3   1   3    6.98    0.94
   3   1   3    6.09    1.25
   3   1   3    6.48    0.88
  -4  -1  -3    0.54    0.34
  -4  -1  -3    0.47    0.45
  -4  -1  -3    0.73    0.36
  -4  -1  -3    0.28    0.40
  -4  -1  -3    0.31    0.42
  -4  -1  -3    0.20    0.40
   4   1   3    0.04    0.33
   4   1   3    0.32    0.52
   4   1   3    1.12    0.88
   4   1   3    0.09    0.62
  -5  -1  -3    7.99    0.70
  -5  -1  -3    9.06    1.26
  -5  -1  -3   10.89    1.42
  -5  -1  -3    7.05    1.80
  -5  -1  -3    7.69    0.77
  -5  -1  -3    8.95    1.34
   5   1   3    9.14    1.40
   5   1   3    7.92    1.82
   5   1   3    7.78    1.72
   5   1   3    7.82    0.74
  -6  -1  -3    0.13    0.58
  -6  -1  -3   -1.04    0.44
  -6  -1  -3    0.39    0.69
  -6  -1  -3   -0.33    0.94
  -6  -1  -3    0.02    0.35
   6   1   3   -0.10    0.99
   6   1   3    0.09    0.86
   6   1   3    0.66    0.42
  -7  -1  -3    0.16    0.77
  -7  -1  -3   -0.46    0.72
  -7  -1  -3    0.23    0.64
   7   1   3    1.69    1.18
   7   1   3    0.49    1.35
  -8  -1  -3   11.07    2.61
  -8  -1  -3    6.83    1.47
  -8  -1  -3    8.87    2.15
   8   1   3    6.07    2.06
   8   1   3    8.15    2.34
   9  -2  -3    2.70    1.54
   9  -2  -3    2.40    1.14
   9  -2  -3    2.53    1.51
  -9   2   3    2.37    1.22
  -9   2   3    3.21    1.19
   8  -2  -3    0.55    1.09
   8  -2  -3    1.28    0.77
   8  -2  -3    2.17    1.23
  -8   2   3   -0.64    0.79
  -8   2   3    1.49    0.91
  -8   2   3    1.16    1.15
   7  -2  -3   39.00    3.26
   7  -2  -3   45.15    3.23
   7  -2  -3   44.55    3.51
   7  -2  -3   45.17    2.81
  -7   2   3   38.51    2.86
  -7   2   3   40.33    2.84
  -7   2   3   41.35    2.86
   6  -2  -3  151.38    4.97
   6  -2  -3  147.56    3.45
   6  -2  -3  161.02    5.80
   6  -2  -3  143.80    5.80
  -6   2   3  158.73    5.34
  -6   2   3  147.78    5.14
  -6   2   3  159.35    5.36
   5  -2  -3   46.28    2.48
   5  -2  -3   45.63    1.76
   5  -2  -3   48.72    3.01
   5  -2  -3   50.33    2.83
  -5   2   3   44.06    2.49
  -5   2   3   40.68    2.38
   4  -2  -3   38.28    2.08
   4  -2  -3   36.77    2.33
   4  -2  -3   39.86    2.25
   4  -2  -3   40.09    2.17
   4  -2  -3   35.65    1.57
  -4   2   3   39.70    2.19
  -4   2   3   35.47    2.02
  -4   2   3   36.02    2.22
  -4   2   3   39.35    2.18
   3  -2  -3   82.36    2.98
   3  -2  -3   85.75    3.07
   3  -2  -3   88.16    2.83
   3  -2  -3   86.93    3.18
   3  -2  -3   85.38    3.02
  -3   2   3   80.20    3.14
  -3   2   3   87.19    2.82
  -3   2   3   83.39    2.99
  -3   2   3   83.00    3.06
   2  -2  -3   80.83    2.79
   2  -2  -3   85.71    2.96
   2  -2  -3   81.52    2.73
   2  -2  -3   81.24    2.30
   2  -2  -3   79.84    2.48
  -2   2   3   80.90    2.78
  -2   2   3   80.81    2.87
   1  -2  -3   34.97    1.81
   1  -2  -3   33.35    1.08
   1  -2  -3   35.08    1.61
   1  -2  -3   35.23    1.68
   1  -2  -3   32.98    1.77
   1  -2  -3   34.67    1.55
  -1   2   3   34.56    1.80
  -1   2   3   36.86    1.77
  -1   2   3   35.20    1.64
  -1   2   3   35.53    1.12
  -1   2   3   32.35    1.55
   0  -2  -3  163.07    3.78
   0  -2  -3  160.16    3.80
   0  -2  -3  166.73    4.48
   0  -2  -3  151.99    4.18
   0  -2  -3  161.64    3.68
   0   2   3  169.03    3.76
   0   2   3  167.41    4.58
   0   2   3  162.00    4.05
   0   2   3  163.04    4.25
  -1  -2  -3   95.17    2.79
  -1  -2  -3   91.15    2.61
  -1  -2  -3  100.28    3.51
  -1  -2  -3   99.93    2.59
  -1  -2  -3   94.97    2.89
  -1  -2  -3   96.85    3.52
  -1  -2  -3   97.67    3.41
  -1  -2  -3   94.17    3.65
  -1  -2  -3   97.37    2.39
  -1  -2  -3   95.59    1.71
   1   2   3   92.40    3.59
   1   2   3   94.78    2.97
   1   2   3   99.42    2.63
   1   2   3   99.31    3.35
   1   2   3   94.28    2.36
   1   2   3   99.94    2.52
  -2  -2  -3  157.43    5.65
  -2  -2  -3  157.93    5.91
  -2  -2  -3  162.53    4.94
  -2  -2  -3  157.06    3.98
  -2  -2  -3  161.75    3.55
  -2  -2  -3  163.02    3.25
  -2  -2  -3  161.84    3.87
  -2  -2  -3  156.63    3.60
  -2  -2  -3  162.56    3.68
   2   2   3  159.62    3.18
   2   2   3  161.58    3.10
   2   2   3  166.19    4.14
   2   2   3  167.55    5.54
   2   2   3  163.04    5.25
  -3  -2  -3    4.60    0.72
  -3  -2  -3    4.80    0.81
  -3  -2  -3    5.58    0.84
  -3  -2  -3    3.76    0.65
  -3  -2  -3    4.22    0.73
  -3  -2  -3    7.56    1.58
  -3  -2  -3    5.27    1.19
  -3  -2  -3    4.86    0.81
  -3  -2  -3    5.57    1.17
   3   2   3    4.99    0.40
   3   2   3    4.08    1.34
   3   2   3    4.84    0.38
   3   2   3    4.11    1.17
   3   2   3    6.71    0.97
  -4  -2  -3    1.16    0.68
  -4  -2  -3    1.62    0.63
  -4  -2  -3    2.34    0.58
  -4  -2  -3    1.80    0.57
  -4  -2  -3    1.63    0.59
  -4  -2  -3    2.00    1.02
   4   2   3    1.17    0.54
   4   2   3    3.61    1.32
   4   2   3    1.56    1.07
  -5  -2  -3   28.86    2.74
  -5  -2  -3   34.61    1.53
  -5  -2  -3   31.23    2.04
  -5  -2  -3   34.22    1.82
  -5  -2  -3   35.74    1.92
  -5  -2  -3   31.00    2.07
   5   2   3   30.99    2.85
   5   2   3   37.52    3.40
  -6  -2  -3    2.09    0.83
  -6  -2  -3    0.96    0.60
  -6  -2  -3    0.42    0.53
  -6  -2  -3   -0.72    0.58
  -6  -2  -3    0.05    1.09
  -6  -2  -3    0.31    0.38
   6   2   3   -0.19    0.95
   6   2   3    0.01    1.11
  -7  -2  -3   10.74    1.27
  -7  -2  -3   10.64    1.38
  -7  -2  -3   12.38    1.87
  -7  -2  -3    9.29    1.65
  -7  -2  -3   12.89    2.52
   7   2   3   11.93    2.62
   7   2   3   15.35    2.73
  -8  -2  -3    7.75    1.89
  -8  -2  -3    8.19    2.16
  -8  -2  -3    6.03    1.22
  -8  -2  -3    5.91    1.28
   8   2   3    7.35    2.04
   8   2   3    5.30    1.78
   9  -3  -3    2.07    1.20
   9  -3  -3    1.90    1.32
   9  -3  -3    0.59    1.38
   9  -3  -3    0.79    1.07
  -9   3   3    1.80    1.06
  -9   3   3    2.03    1.15
   8  -3  -3    4.10    1.32
   8  -3  -3    3.56    1.53
  -8   3   3    1.47    1.07
  -8   3   3    4.84    1.59
   7  -3  -3    0.28    0.80
   7  -3  -3    0.49    0.44
   7  -3  -3   -0.52    0.78
   7  -3  -3    0.42    0.64
  -7   3   3   -1.45    0.82
  -7   3   3    0.94    0.80
  -7   3   3   -0.95    0.79
   6  -3  -3    7.22    1.76
   6  -3  -3    8.07    0.98
   6  -3  -3   10.81    1.72
   6  -3  -3    8.98    1.77
  -6   3   3    8.10    1.64
  -6   3   3   10.84    1.76
  -6   3   3    5.40    1.19
   5  -3  -3   49.29    2.01
   5  -3  -3   48.60    2.71
   5  -3  -3   48.10    2.69
  -5   3   3   51.00    2.77
  -5   3   3   44.44    2.68
   4  -3  -3   64.84    2.33
   4  -3  -3   65.08    2.94
   4  -3  -3   65.04    3.08
   4  -3  -3   63.92    2.74
   4  -3  -3   62.57    3.01
  -4   3   3   56.40    2.57
  -4   3   3   59.07    2.83
  -4   3   3   61.92    3.00
  -4   3   3   64.60    3.00
   3  -3  -3   14.60    1.43
   3  -3  -3   17.00    1.50
   3  -3  -3   13.17    1.11
   3  -3  -3   15.46    1.40
   3  -3  -3   14.02    1.26
  -3   3   3   15.36    1.45
  -3   3   3   14.72    1.43
  -3   3   3   11.06    1.07
   2  -3  -3   16.95    1.30
   2  -3  -3   18.52    1.09
   2  -3  -3   20.19    1.37
   2  -3  -3   17.10    1.46
   2  -3  -3   19.54    1.50
  -2   3   3   17.74    1.13
  -2   3   3   18.55    1.39
  -2   3   3   16.30    1.46
  -2   3   3   17.48    1.47
  -2   3   3   17.26    1.40
   1  -3  -3   91.00    3.43
   1  -3  -3   95.54    3.23
   1  -3  -3   93.45    3.01
   1  -3  -3   96.18    2.17
   1  -3  -3   98.63    2.99
  -1   3   3   88.95    2.90
  -1   3   3   97.76    2.96
  -1   3   3   93.89    3.27
  -1   3   3   93.44    3.20
   0  -3  -3   57.23    1.21
   0  -3  -3   58.22    2.77
   0  -3  -3   52.76    2.06
   0  -3  -3   57.72    2.08
   0  -3  -3   55.97    2.51
   0  -3  -3   54.31    2.38
   0   3   3   58.00    2.09
   0   3   3   59.91    2.13
   0   3   3   60.90    2.56
   0   3   3   54.43    2.75
   0   3   3   58.73    2.50
  -1  -3  -3  257.07    6.26
  -1  -3  -3  245.64    5.03
  -1  -3  -3  254.27    3.96
  -1  -3  -3  248.50    4.02
  -1  -3  -3  246.90    5.14
  -1  -3  -3  242.07    6.78
  -1  -3  -3  249.98    5.82
  -1  -3  -3  249.27    4.91
   1   3   3  250.59    6.15
   1   3   3  241.82    4.64
   1   3   3  250.38    5.13
   1   3   3  249.39    5.90
   1   3   3  251.57    6.79
  -2  -3  -3   30.79    2.38
  -2  -3  -3   33.59    1.46
  -2  -3  -3   25.61    1.70
  -2  -3  -3   30.63    2.23
  -2  -3  -3   27.32    2.04
  -2  -3  -3   31.20    1.20
  -2  -3  -3   30.60    1.59
  -2  -3  -3   31.93    1.35
   2   3   3   30.01    0.78
   2   3   3   31.13    0.79
   2   3   3   32.21    1.94
   2   3   3   31.37    1.59
   2   3   3   32.93    2.37
  -3  -3  -3   12.18    1.22
  -3  -3  -3   12.30    0.87
  -3  -3  -3   13.27    1.23
  -3  -3  -3   11.11    0.94
  -3  -3  -3   13.43    0.99
  -3  -3  -3   14.78    1.21
   3   3   3   10.47    1.45
   3   3   3   16.64    2.54
   3   3   3   11.79    1.98
  -4  -3  -3    7.41    1.12
  -4  -3  -3    8.57    1.11
  -4  -3  -3    7.59    1.34
  -4  -3  -3    7.22    0.88
  -4  -3  -3    5.00    1.38
  -4  -3  -3    7.63    1.26
   4   3   3    7.05    1.77
   4   3   3    6.37    1.12
   4   3   3    7.52    1.75
  -5  -3  -3    3.91    0.91
  -5  -3  -3    3.51    0.70
  -5  -3  -3    2.05    1.14
  -5  -3  -3    3.37    0.97
  -5  -3  -3    2.11    0.73
   5   3   3    3.10    1.69
   5   3   3    4.56    1.46
  -6  -3  -3    0.40    0.55
  -6  -3  -3    1.74    1.16
  -6  -3  -3    0.56    0.46
  -6  -3  -3    0.81    0.50
  -6  -3  -3    1.89    0.64
  -6  -3  -3   -1.32    0.70
  -6  -3  -3    1.57    0.87
   6   3   3    2.49    1.19
   6   3   3    0.16    1.13
  -7  -3  -3   -0.78    0.47
  -7  -3  -3    0.84    0.83
  -7  -3  -3    0.94    1.31
  -7  -3  -3    0.54    0.53
   7   3   3    0.30    1.05
   7   3   3   -0.45    1.01
   9  -4  -3    0.28    1.05
   9  -4  -3    1.12    1.29
   9  -4  -3    1.22    1.19
   9  -4  -3    2.40    1.29
  -9   4   3    1.59    1.05
  -9   4   3    0.12    0.75
  -9   4   3    1.60    1.14
   8  -4  -3    3.25    1.39
   8  -4  -3    4.86    1.70
   8  -4  -3    2.88    1.38
   8  -4  -3    3.58    0.71
  -8   4   3    6.14    1.57
  -8   4   3    6.04    1.28
   7  -4  -3   23.12    1.49
   7  -4  -3   24.10    2.61
   7  -4  -3   21.90    2.21
   7  -4  -3   19.02    2.44
  -7   4   3   23.25    2.30
  -7   4   3   25.43    2.02
   6  -4  -3   19.29    1.38
   6  -4  -3   19.65    1.86
   6  -4  -3   20.90    2.48
   6  -4  -3   20.49    2.75
  -6   4   3   18.55    2.39
  -6   4   3   19.68    1.83
  -6   4   3   18.69    2.41
  -6   4   3   18.94    2.35
   5  -4  -3    6.00    1.23
   5  -4  -3    4.65    0.86
   5  -4  -3    6.12    1.27
  -5   4   3    7.09    1.32
  -5   4   3    7.86    1.42
  -5   4   3    6.43    1.27
   4  -4  -3   41.11    2.46
   4  -4  -3   39.82    2.48
   4  -4  -3   39.00    2.11
   4  -4  -3   37.89    2.66
   4  -4  -3   40.30    2.41
  -4   4   3   42.38    2.69
  -4   4   3   39.17    2.49
  -4   4   3   43.65    2.54
  -4   4   3   36.44    2.42
  -4   4   3   39.37    2.37
   3  -4  -3   28.56    1.62
   3  -4  -3   28.63    1.94
   3  -4  -3   26.30    1.88
   3  -4  -3   28.58    1.63
   3  -4  -3   26.30    1.89
  -3   4   3   27.19    1.91
  -3   4   3   26.49    1.92
  -3   4   3   29.59    1.69
  -3   4   3   29.03    1.97
  -3   4   3   27.59    1.92
   2  -4  -3    1.49    0.62
   2  -4  -3    1.56    0.69
   2  -4  -3    1.40    0.48
   2  -4  -3    1.42    0.59
  -2   4   3    1.50    0.74
  -2   4   3    1.84    0.72
  -2   4   3    1.54    0.54
  -2   4   3    0.37    0.47
  -2   4   3    1.97    0.56
   1  -4  -3    9.26    1.73
   1  -4  -3    8.68    1.16
   1  -4  -3    7.72    1.11
   1  -4  -3    8.33    1.25
   1  -4  -3    7.67    0.65
  -1   4   3    8.29    1.15
  -1   4   3    8.06    0.73
  -1   4   3    7.58    1.25
  -1   4   3    8.52    1.31
  -1   4   3    9.08    1.21
   0  -4  -3    7.57    1.04
   0  -4  -3    7.20    0.54
   0  -4  -3    8.95    1.48
   0  -4  -3    7.68    1.00
   0  -4  -3    7.87    1.25
   0  -4  -3    8.20    1.34
   0  -4  -3    8.15    1.21
   0   4   3    8.95    1.44
   0   4   3   10.13    1.43
   0   4   3    8.07    1.18
   0   4   3    8.60    1.02
   0   4   3    9.60    0.91
  -1  -4  -3   16.40    2.21
  -1  -4  -3   10.77    0.95
  -1  -4  -3   10.69    1.08
  -1  -4  -3    9.81    1.40
  -1  -4  -3   10.82    1.67
  -1  -4  -3   11.04    0.69
  -1  -4  -3   12.08    1.64
  -1  -4  -3   10.79    0.92
   1   4   3   11.64    1.14
   1   4   3   12.23    1.57
   1   4   3   11.86    1.60
   1   4   3   12.68    1.88
  -2  -4  -3    7.26    0.86
  -2  -4  -3    4.88    1.27
  -2  -4  -3    5.24    0.72
  -2  -4  -3    5.98    0.71
  -2  -4  -3    5.71    0.97
  -2  -4  -3    6.43    1.18
   2   4   3    6.53    1.30
   2   4   3    6.95    1.59
   2   4   3    5.83    1.00
  -3  -4  -3    0.40    0.51
  -3  -4  -3    0.84    0.47
  -3  -4  -3    1.52    0.49
  -3  -4  -3    1.75    0.71
  -3  -4  -3    1.31    0.40
   3   4   3    2.38    1.02
   3   4   3    1.67    0.88
   3   4   3    0.60    0.64
  -4  -4  -3   24.36    1.76
  -4  -4  -3   22.81    1.84
  -4  -4  -3   27.01    1.22
  -4  -4  -3   23.70    1.14
  -4  -4  -3   25.46    2.48
  -4  -4  -3   22.74    1.55
   4   4   3   22.87    2.20
   4   4   3   30.53    2.89
  -5  -4  -3    9.04    1.95
  -5  -4  -3    8.17    0.68
  -5  -4  -3    8.32    1.29
  -5  -4  -3    8.22    0.74
  -5  -4  -3    9.18    1.58
   5   4   3    7.44    2.06
   5   4   3    7.77    1.36
   5   4   3   10.34    2.11
  -6  -4  -3    3.68    0.58
  -6  -4  -3    4.10    1.21
  -6  -4  -3    3.00    0.89
   6   4   3    2.10    1.49
   6   4   3    1.67    1.16
  -7  -4  -3    0.32    1.31
  -7  -4  -3    0.38    0.33
  -7  -4  -3    0.68    0.86
  -7  -4  -3    0.60    0.54
  -7  -4  -3   -0.04    0.63
   7   4   3   -0.15    1.60
   7   4   3    1.26    1.34
   9  -5  -3    0.60    1.03
   9  -5  -3    0.74    1.09
   9  -5  -3   -1.64    1.09
  -9   5   3   -0.39    0.76
  -9   5   3   -1.70    1.02
  -9   5   3    0.27    1.00
   8  -5  -3    5.14    1.63
   8  -5  -3    8.15    1.82
   8  -5  -3   12.24    2.59
  -8   5   3    8.07    1.63
  -8   5   3    8.52    1.83
  -8   5   3   11.37    2.62
   7  -5  -3    1.38    1.08
   7  -5  -3    4.64    1.69
   7  -5  -3    3.64    1.51
   7  -5  -3    3.50    0.89
  -7   5   3    2.50    1.23
  -7   5   3    2.32    1.01
  -7   5   3    3.45    1.36
   6  -5  -3   35.09    2.44
   6  -5  -3   33.79    2.03
  -6   5   3   40.40    3.01
  -6   5   3   34.58    2.43
  -6   5   3   36.72    2.67
   5  -5  -3  109.00    3.76
   5  -5  -3  117.68    4.88
   5  -5  -3  118.52    4.05
  -5   5   3  123.32    4.57
  -5   5   3  124.23    4.61
   4  -5  -3   92.73    3.47
   4  -5  -3   95.96    3.99
   4  -5  -3   85.84    3.75
   4  -5  -3   92.48    3.07
   4  -5  -3   93.37    3.45
  -4   5   3   86.97    3.90
  -4   5   3   92.35    3.60
  -4   5   3   88.63    3.85
   3  -5  -3    3.07    0.95
   3  -5  -3    1.66    0.60
   3  -5  -3    3.19    0.77
   3  -5  -3    3.96    1.05
   3  -5  -3    3.30    0.94
  -3   5   3    1.36    0.76
  -3   5   3    1.33    0.56
  -3   5   3    2.11    0.86
  -3   5   3    2.97    0.96
   2  -5  -3    3.02    0.82
   2  -5  -3    2.09    0.77
   2  -5  -3    1.66    0.73
   2  -5  -3    1.04    0.60
   2  -5  -3    2.36    0.57
  -2   5   3    2.63    0.92
  -2   5   3    1.77    0.60
  -2   5   3    2.47    0.83
  -2   5   3    1.56    0.73
  -2   5   3    1.67    0.69
   1  -5  -3    3.44    0.82
   1  -5  -3    2.48    0.80
   1  -5  -3    3.08    0.57
   1  -5  -3    3.31    0.77
  -1   5   3    1.46    0.68
  -1   5   3    3.59    0.70
  -1   5   3    3.91    0.81
  -1   5   3    3.31    0.88
  -1   5   3    3.28    0.95
   0  -5  -3   34.45    1.89
   0  -5  -3   31.03    1.28
   0  -5  -3   30.61    1.95
   0  -5  -3   31.61    1.76
   0  -5  -3   29.80    1.99
   0   5   3   30.67    1.96
   0   5   3   32.60    2.33
   0   5   3   32.86    1.63
   0   5   3   34.20    2.12
  -1  -5  -3   77.01    3.39
  -1  -5  -3   80.07    2.20
  -1  -5  -3   78.04    2.62
   1   5   3   76.64    2.09
   1   5   3   84.68    3.27
   1   5   3   83.84    4.32
   1   5   3   77.61    2.04
  -2  -5  -3    9.79    1.64
  -2  -5  -3    8.92    1.09
  -2  -5  -3    7.63    0.95
  -2  -5  -3    8.69    1.34
  -2  -5  -3    7.71    0.78
  -2  -5  -3    7.34    0.91
   2   5   3    8.89    1.81
   2   5   3    6.72    1.38
   2   5   3    7.54    1.27
  -3  -5  -3   19.21    1.31
  -3  -5  -3   16.36    1.01
  -3  -5  -3   17.12    1.72
  -3  -5  -3   15.64    2.22
  -3  -5  -3   16.31    0.99
   3   5   3   15.61    2.35
   3   5   3   20.15    1.98
   3   5   3   19.99    1.72
  -4  -5  -3   12.07    1.20
  -4  -5  -3   10.92    0.67
  -4  -5  -3   11.73    0.68
  -4  -5  -3   14.76    2.34
   4   5   3   10.13    2.19
   4   5   3   10.34    1.63
  -5  -5  -3    1.32    0.79
  -5  -5  -3    3.66    1.40
   5   5   3    2.25    1.07
  -6  -5  -3   -0.27    0.79
  -6  -5  -3    1.55    1.25
  -6  -5  -3    1.62    0.91
   6   5   3    1.71    1.50
   9  -6  -3   -0.78    0.88
   9  -6  -3    0.38    1.45
   9  -6  -3    1.88    1.46
  -9   6   3    0.85    1.15
  -9   6   3    1.65    1.37
   8  -6  -3   -0.19    1.17
   8  -6  -3   -0.44    0.95
   8  -6  -3   -0.35    1.10
  -8   6   3   -0.55    0.66
  -8   6   3    1.15    1.16
   7  -6  -3    1.20    1.04
   7  -6  -3    0.76    0.94
  -7   6   3   -0.48    0.73
  -7   6   3    1.39    0.90
   6  -6  -3   13.36    2.27
   6  -6  -3   15.73    1.97
  -6   6   3   12.34    1.94
  -6   6   3   11.22    2.03
   5  -6  -3    5.14    1.07
   5  -6  -3    4.58    1.37
  -5   6   3    5.80    1.42
  -5   6   3    5.68    1.32
  -5   6   3    8.88    1.94
   4  -6  -3    1.12    0.75
   4  -6  -3    0.28    0.51
   4  -6  -3   -0.15    0.71
   4  -6  -3    0.03    0.45
  -4   6   3   -0.25    0.55
  -4   6   3   -0.73    0.67
  -4   6   3    1.33    0.89
   3  -6  -3    0.74    0.80
   3  -6  -3    0.88    0.79
   3  -6  -3    1.30    0.71
   3  -6  -3    2.60    0.96
   3  -6  -3    0.79    0.45
  -3   6   3    0.51    0.72
  -3   6   3    1.33    0.81
  -3   6   3    0.80    0.83
  -3   6   3    1.00    0.87
   2  -6  -3    2.67    0.67
   2  -6  -3    5.85    1.17
   2  -6  -3    2.29    0.77
   2  -6  -3    2.30    0.76
  -2   6   3    2.73    0.91
  -2   6   3    3.73    1.16
  -2   6   3    4.08    1.05
  -2   6   3    3.29    0.85
  -2   6   3    3.11    1.04
   1  -6  -3    0.21    0.61
   1  -6  -3    0.11    0.59
   1  -6  -3   -0.53    0.38
   1  -6  -3    0.05    0.46
   1  -6  -3    0.02    0.44
  -1   6   3   -0.04    0.30
  -1   6   3    0.75    0.67
  -1   6   3    0.56    0.56
   0  -6  -3    0.34    0.45
   0  -6  -3    0.30    0.54
   0  -6  -3    0.25    0.58
   0  -6  -3    0.77    0.72
   0   6   3    1.48    0.55
   0   6   3    0.81    0.90
   0   6   3   -1.26    0.67
  -1  -6  -3   10.56    1.64
  -1  -6  -3    8.01    1.11
  -1  -6  -3    6.37    0.79
  -1  -6  -3    7.40    1.08
   1   6   3    7.28    1.49
   1   6   3    7.44    0.62
   1   6   3   11.42    1.88
  -2  -6  -3   16.34    1.16
  -2  -6  -3   16.18    1.18
  -2  -6  -3   21.44    1.87
  -2  -6  -3   18.74    1.99
  -2  -6  -3   20.01    1.20
   2   6   3   17.67    2.34
   2   6   3   21.33    1.83
  -3  -6  -3   17.81    1.44
  -3  -6  -3   18.38    1.07
  -3  -6  -3   19.36    1.11
  -3  -6  -3   17.09    2.38
  -3  -6  -3   17.98    1.32
   3   6   3   17.86    1.87
   3   6   3   16.39    2.36
  -4  -6  -3    9.10    1.19
  -4  -6  -3    9.95    1.98
   4   6   3   12.94    2.13
  -5  -6  -3   -0.09    0.85
  -5  -6  -3    0.49    0.89
  -5  -6  -3    1.18    1.23
   5   6   3   -0.23    0.82
   8  -7  -3    7.30    1.82
   8  -7  -3    7.37    1.81
   8  -7  -3    9.63    2.30
  -8   7   3    7.23    1.93
  -8   7   3   10.09    2.30
  -8   7   3   11.26    1.96
   7  -7  -3    1.67    0.98
   7  -7  -3   -0.99    0.90
   7  -7  -3   -0.90    0.97
  -7   7   3    2.03    0.97
  -7   7   3    0.82    1.10
  -7   7   3    1.44    1.10
   6  -7  -3    5.05    1.64
   6  -7  -3    4.03    1.01
  -6   7   3    3.45    1.18
  -6   7   3    2.92    1.15
  -6   7   3    4.43    1.33
   5  -7  -3   13.69    2.19
   5  -7  -3   12.71    1.16
  -5   7   3   11.08    1.98
  -5   7   3   15.53    2.28
  -5   7   3   12.20    2.23
   4  -7  -3   18.37    1.02
   4  -7  -3   17.57    2.27
   4  -7  -3   18.20    2.53
   4  -7  -3   15.18    2.00
  -4   7   3   18.33    2.51
  -4   7   3   17.09    2.34
  -4   7   3   18.65    1.88
   3  -7  -3    4.99    1.11
   3  -7  -3    5.31    0.64
   3  -7  -3    5.66    1.38
   3  -7  -3    5.15    0.65
   3  -7  -3    7.31    1.22
   3  -7  -3    6.61    1.46
  -3   7   3    5.22    1.29
  -3   7   3    8.16    1.77
  -3   7   3    8.22    1.44
  -3   7   3    7.76    1.64
  -3   7   3    6.17    1.21
   2  -7  -3    4.87    1.23
   2  -7  -3    6.98    1.41
   2  -7  -3    6.20    0.89
   2  -7  -3    5.06    1.19
  -2   7   3    7.03    1.39
  -2   7   3    5.72    1.06
  -2   7   3    5.65    1.35
  -2   7   3    4.26    1.24
  -2   7   3    8.64    1.42
   1  -7  -3    0.05    0.66
   1  -7  -3    0.08    0.52
   1  -7  -3   -0.19    0.53
   1  -7  -3   -0.04    0.70
   1  -7  -3   -0.09    0.54
  -1   7   3    0.23    0.81
  -1   7   3    0.22    0.81
  -1   7   3   -0.20    0.45
   0  -7  -3    1.50    0.67
   0  -7  -3    0.79    0.74
   0  -7  -3    0.97    0.55
   0  -7  -3    0.71    0.64
   0   7   3    0.04    0.77
   0   7   3    1.63    0.92
   0   7   3    0.18    0.91
   0   7   3    0.11    0.72
  -1  -7  -3    1.55    0.62
  -1  -7  -3    2.09    0.99
  -1  -7  -3    0.81    0.50
   1   7   3    2.52    1.09
   1   7   3    1.84    0.79
  -2  -7  -3    1.26    0.56
  -2  -7  -3    0.32    0.44
  -2  -7  -3    0.80    0.58
  -2  -7  -3    0.73    0.83
  -2  -7  -3    1.30    0.48
   2   7   3    0.87    0.77
   2   7   3   -0.18    0.80
  -3  -7  -3   15.70    2.26
  -3  -7  -3   14.50    0.97
  -3  -7  -3   12.26    1.26
  -3  -7  -3   12.56    0.88
  -3  -7  -3   11.31    1.10
   3   7   3   13.98    2.39
   3   7   3   10.62    1.82
  -4  -7  -3   -0.17    1.04
  -4  -7  -3   -0.28    0.60
  -5  -7  -3    1.37    1.17
  -5  -7  -3    0.44    1.39
   5   7   3   -1.82    1.02
   8  -8  -3   -0.61    1.24
  -8   8   3   -0.67    0.76
  -8   8   3   -0.77    1.19
  -8   8   3    1.94    1.35
   7  -8  -3   -0.16    1.00
   7  -8  -3   -0.87    0.80
  -7   8   3   -1.97    0.84
  -7   8   3    1.10    1.20
   6  -8  -3    3.71    0.75
   6  -8  -3    3.67    1.53
  -6   8   3    4.39    1.44
  -6   8   3    4.82    1.50
  -6   8   3    4.31    1.23
   5  -8  -3   11.61    2.17
  -5   8   3   14.14    2.40
  -5   8   3    9.22    1.91
  -5   8   3   13.05    1.96
   4  -8  -3   25.58    2.48
   4  -8  -3   22.10    2.66
  -4   8   3   19.58    2.61
  -4   8   3   23.89    2.48
  -4   8   3   25.20    2.29
  -4   8   3   23.88    3.62
   3  -8  -3    2.02    0.98
   3  -8  -3    1.48    1.00
   3  -8  -3    0.65    0.75
  -3   8   3    2.84    1.12
  -3   8   3    1.59    0.92
  -3   8   3    1.42    0.82
  -3   8   3    2.26    1.10
   2  -8  -3    0.42    0.66
   2  -8  -3    1.58    0.88
   2  -8  -3    0.22    0.30
   2  -8  -3   -0.23    0.79
   2  -8  -3    1.96    0.95
  -2   8   3    0.97    0.81
  -2   8   3    0.90    0.87
  -2   8   3    1.71    0.88
   1  -8  -3   -0.26    0.65
   1  -8  -3   -0.01    0.52
   1  -8  -3    0.36    0.67
  -1   8   3   -0.64    0.76
  -1   8   3   -0.56    0.60
  -1   8   3   -0.02    0.49
  -1   8   3    2.66    1.00
   0  -8  -3   -0.32    0.65
   0  -8  -3   -0.28    0.58
   0  -8  -3   -0.60    0.51
   0  -8  -3    0.20    0.58
   0   8   3    0.00    0.61
   0   8   3   -0.59    0.62
  -1  -8  -3    1.55    0.63
  -1  -8  -3    0.44    0.63
  -1  -8  -3    1.79    0.77
   1   8   3   -0.11    0.80
  -2  -8  -3    4.32    1.19
  -2  -8  -3    4.28    0.85
  -2  -8  -3    3.60    0.79
  -2  -8  -3    3.75    0.85
  -2  -8  -3    2.64    0.81
   2   8   3    2.51    1.25
   2   8   3    3.66    1.33
  -3  -8  -3    7.75    1.72
  -3  -8  -3    6.60    1.16
   3   8   3    8.45    1.72
   3   8   3    6.21    1.71
  -4  -8  -3    2.07    1.29
  -4  -8  -3    2.24    1.44
  -4  -8  -3    0.92    0.82
   4   8   3    1.58    1.24
   7  -9  -3    0.25    1.30
  -7   9   3    1.32    1.16
  -7   9   3    2.74    1.94
  -7   9   3   -1.40    0.94
   6  -9  -3   -0.77    0.99
  -6   9   3    0.60    1.16
  -6   9   3    1.26    1.29
  -6   9   3   -0.62    1.20
  -6   9   3    2.02    1.25
   5  -9  -3    0.50    1.08
  -5   9   3    0.21    1.06
  -5   9   3    0.60    1.40
  -5   9   3    1.38    1.11
   4  -9  -3    0.29    0.90
  -4   9   3    1.95    1.17
  -4   9   3    1.10    0.75
  -4   9   3    0.37    0.94
  -4   9   3    0.92    0.88
   3  -9  -3    1.44    0.98
   3  -9  -3    1.82    0.96
   3  -9  -3    1.82    1.21
  -3   9   3    3.16    1.11
  -3   9   3    2.89    1.05
  -3   9   3    0.15    0.98
   2  -9  -3    2.16    1.02
   2  -9  -3    2.71    1.03
  -2   9   3    1.59    0.94
  -2   9   3   -0.20    0.90
  -2   9   3    1.21    1.19
   1  -9  -3    1.58    0.94
   1  -9  -3    2.28    0.96
   1  -9  -3    0.38    0.63
   1  -9  -3    1.18    0.79
   1  -9  -3    1.74    0.97
  -1   9   3   -0.63    1.13
  -1   9   3    1.17    1.14
  -1   9   3    0.44    0.96
   0  -9  -3    4.19    1.17
   0  -9  -3    3.96    1.03
   0  -9  -3    3.12    1.50
   0   9   3    6.13    1.70
   0   9   3    5.51    1.81
  -1  -9  -3    6.96    1.24
  -1  -9  -3    6.48    1.39
   1   9   3    4.95    1.66
   1   9   3    9.73    2.01
  -2  -9  -3    1.22    0.66
  -2  -9  -3    0.66    0.61
  -2  -9  -3   -1.54    0.95
   2   9   3    1.12    1.33
   2   9   3    0.09    1.09
   5 -10  -3    4.53    1.55
  -5  10   3    6.08    1.84
  -5  10   3   10.61    2.17
   4 -10  -3    3.30    1.43
  -4  10   3    2.28    1.37
  -4  10   3    4.49    1.77
  -4  10   3    2.96    1.79
  -4  10   3    1.93    1.49
   3 -10  -3   -0.43    0.80
  -3  10   3    1.81    1.24
  -3  10   3    0.51    0.83
  -3  10   3   -2.04    1.35
   2 -10  -3    2.13    1.11
   2 -10  -3   -0.20    1.00
  -2  10   3    0.25    0.96
   1 -10  -3    1.10    0.95
  -1  10   3    1.80    1.53
  -1  10   3    3.01    1.35
   0 -10  -3    0.83    0.80
   0  10   3   -0.15    1.05
   0  10   3   -0.21    1.17
  -1 -10  -3    2.45    1.06
   1  10   3    1.61    1.35
   1  10   3    2.71    1.39
   2  11  -4   -1.82    1.21
  -2 -11   4    1.46    0.87
  -2 -11   4    0.03    1.06
   1  11  -4    1.11    1.13
   1  11  -4    1.91    1.10
  -1 -11   4   -0.30    0.74
  -1 -11   4    2.58    1.38
   0  11  -4   -0.59    0.94
   0  11  -4   -0.13    1.06
   0 -11   4    3.14    1.31
   0 -11   4    1.41    0.98
  -1  11  -4    1.88    1.15
  -1  11  -4   -1.43    0.90
   1 -11   4    0.34    1.06
   1 -11   4    1.22    1.11
  -2  11  -4    0.40    0.99
  -2  11  -4    2.57    1.84
   2 -11   4    3.08    1.46
   2 -11   4    2.81    1.30
   2 -11   4    1.81    0.84
  -3  11  -4    1.38    1.03
  -3  11  -4    0.17    1.63
  -3  11  -4    0.02    1.01
   3 -11   4   -0.53    0.94
   3 -11   4    1.24    1.28
  -4  11  -4   -0.44    1.15
  -4  11  -4    0.44    1.92
  -4  11  -4    1.42    1.24
  -4  11  -4    0.70    1.27
   4 -11   4   -0.59    1.12
   4 -11   4    0.40    1.19
   4 -11   4   -1.30    0.86
   3  10  -4   -1.50    1.02
   3  10  -4   -0.90    1.12
  -3 -10   4   -1.23    0.50
  -3 -10   4   -0.59    0.87
  -3 -10   4   -1.52    0.63
   2  10  -4   13.77    2.63
   2  10  -4    6.81    1.48
  -2 -10   4   11.63    1.79
  -2 -10   4    6.03    1.83
  -2 -10   4    7.32    1.37
   1  10  -4   -0.63    0.81
   1  10  -4   -1.72    0.97
   1  10  -4    0.04    0.91
  -1 -10   4   -0.52    0.81
  -1 -10   4    0.14    0.63
  -1 -10   4    2.03    1.01
  -1 -10   4   -1.73    0.73
   0  10  -4    0.69    0.93
   0  10  -4   -0.45    0.87
   0  10  -4    0.11    0.90
   0 -10   4   -0.09    0.82
   0 -10   4   -0.60    0.76
   0 -10   4   -0.11    0.84
   0 -10   4    0.49    0.92
  -1  10  -4   12.89    2.14
  -1  10  -4   13.96    2.48
  -1  10  -4   16.74    2.64
   1 -10   4   15.04    2.08
   1 -10   4   18.77    2.69
   1 -10   4   17.15    2.42
   1 -10   4   12.74    1.66
  -2  10  -4    9.47    1.95
  -2  10  -4    9.06    2.22
   2 -10   4    7.17    1.26
   2 -10   4   10.72    1.97
   2 -10   4   10.31    2.10
  -3  10  -4    2.25    1.16
  -3  10  -4    0.82    1.42
  -3  10  -4    4.21    1.42
   3 -10   4    5.19    1.79
   3 -10   4    3.27    1.18
  -4  10  -4    0.38    0.52
  -4  10  -4   -0.01    1.08
  -4  10  -4    1.88    1.55
  -4  10  -4   -1.17    0.76
  -4  10  -4   -0.52    0.63
   4 -10   4   -0.93    0.76
   4 -10   4   -0.72    0.80
   4 -10   4    0.64    1.10
  -5  10  -4    0.16    0.83
  -5  10  -4    1.46    1.06
  -5  10  -4    2.87    1.16
  -5  10  -4   -0.21    0.76
  -5  10  -4    0.08    1.05
   5 -10   4    1.13    1.21
   5 -10   4    1.36    1.34
   5 -10   4    0.77    0.94
  -6  10  -4    1.73    1.35
  -6  10  -4    5.20    1.42
  -6  10  -4    0.48    1.88
  -6  10  -4    5.42    1.85
  -6  10  -4    4.81    1.93
   6 -10   4    3.52    1.53
   6 -10   4    5.15    1.82
   6 -10   4    4.15    1.70
   5   9  -4    6.11    2.38
   5   9  -4    5.44    1.77
  -5  -9   4    3.37    1.47
  -5  -9   4    5.29    1.51
   4   9  -4   -1.13    1.07
   4   9  -4    0.95    1.46
  -4  -9   4   -1.32    0.77
  -4  -9   4    0.75    0.59
  -4  -9   4    1.32    0.80
   3   9  -4    0.70    1.12
   3   9  -4    3.74    1.37
  -3  -9   4    1.71    0.72
  -3  -9   4    1.43    1.03
  -3  -9   4   -1.03    0.94
   2   9  -4    1.83    1.11
   2   9  -4    0.35    0.87
  -2  -9   4    1.27    0.75
  -2  -9   4    1.78    0.82
  -2  -9   4    0.66    0.70
   1   9  -4   -0.84    0.65
   1   9  -4   -1.11    0.89
   1   9  -4   -0.92    0.57
  -1  -9   4   -0.46    0.52
  -1  -9   4    2.45    1.28
  -1  -9   4   -0.04    0.68
  -1  -9   4    2.16    0.98
   0   9  -4    0.96    0.49
   0   9  -4    1.44    1.03
   0   9  -4   -0.43    0.83
   0   9  -4    2.30    0.99
   0  -9   4   -0.49    0.58
   0  -9   4    1.78    0.82
   0  -9   4    3.62    1.24
   0  -9   4    0.25    0.76
  -1   9  -4   14.14    2.33
  -1   9  -4   14.38    2.34
  -1   9  -4   14.99    2.08
   1  -9   4   13.97    2.27
   1  -9   4   12.57    1.94
   1  -9   4   16.77    2.13
  -2   9  -4    3.00    1.05
  -2   9  -4    4.15    1.21
  -2   9  -4    0.69    1.22
   2  -9   4    2.03    0.82
   2  -9   4    1.77    0.94
   2  -9   4    1.20    1.14
   2  -9   4    6.42    1.63
  -3   9  -4    6.76    1.77
  -3   9  -4    4.72    1.24
  -3   9  -4    7.77    1.98
  -3   9  -4    7.97    1.83
   3  -9   4    7.41    1.71
   3  -9   4    8.49    1.44
   3  -9   4   10.32    2.01
  -4   9  -4   14.01    2.49
  -4   9  -4    9.84    1.33
  -4   9  -4    8.32    1.29
  -4   9  -4    9.65    2.52
  -4   9  -4   12.73    1.89
   4  -9   4   12.91    1.91
   4  -9   4    9.57    2.10
   4  -9   4   11.52    2.09
  -5   9  -4    0.49    1.08
  -5   9  -4    0.66    0.76
  -5   9  -4   -0.05    0.78
  -5   9  -4    1.47    1.33
   5  -9   4    2.13    1.18
   5  -9   4    0.33    0.79
   5  -9   4   -1.11    0.88
  -6   9  -4    1.62    1.29
  -6   9  -4    1.30    1.32
  -6   9  -4   -0.36    0.80
  -6   9  -4    3.14    1.46
   6  -9   4   -0.01    0.94
   6  -9   4    0.93    1.02
  -7   9  -4   11.75    2.55
  -7   9  -4   11.43    2.50
  -7   9  -4    7.74    1.96
   7  -9   4   11.85    2.27
   7  -9   4   12.43    2.45
   7  -9   4    7.69    1.56
   6   8  -4    7.66    2.46
  -6  -8   4    5.93    1.88
  -6  -8   4    3.96    1.39
  -6  -8   4   10.99    1.74
   5   8  -4   18.59    3.11
  -5  -8   4   19.37    0.94
  -5  -8   4   19.39    0.92
  -5  -8   4   17.24    1.79
   4   8  -4   15.50    2.58
   4   8  -4   17.15    3.08
  -4  -8   4   13.61    1.20
  -4  -8   4   15.76    1.26
  -4  -8   4   15.62    3.01
  -4  -8   4   15.41    1.28
  -4  -8   4   16.35    2.35
  -4  -8   4   19.65    1.28
   3   8  -4   -1.78    0.80
   3   8  -4   -0.70    0.79
  -3  -8   4   -0.21    0.47
  -3  -8   4   -0.04    0.74
  -3  -8   4   -1.49    0.59
   2   8  -4    2.35    0.56
   2   8  -4    6.72    1.61
   2   8  -4    4.15    1.25
  -2  -8   4    2.84    1.12
  -2  -8   4    3.64    0.83
  -2  -8   4    3.81    0.94
  -2  -8   4    3.29    0.89
   1   8  -4    2.23    1.22
   1   8  -4    0.67    0.68
   1   8  -4    0.73    0.59
   1   8  -4    0.35    0.62
  -1  -8   4    1.13    0.74
  -1  -8   4    3.63    1.24
  -1  -8   4    2.17    0.56
  -1  -8   4    2.68    0.75
   0   8  -4    9.13    1.69
   0   8  -4   11.51    1.92
   0   8  -4   11.86    1.02
   0  -8   4    8.68    1.60
   0  -8   4   12.37    1.69
   0  -8   4   10.17    1.03
   0  -8   4   12.18    1.69
  -1   8  -4    9.63    1.95
  -1   8  -4    8.65    1.55
  -1   8  -4    9.20    1.80
   1  -8   4    8.76    1.66
   1  -8   4    9.76    1.67
   1  -8   4    8.15    1.51
  -2   8  -4    8.11    1.75
  -2   8  -4    9.33    1.88
  -2   8  -4    9.09    1.89
  -2   8  -4    7.12    1.37
   2  -8   4    6.90    1.57
   2  -8   4    9.14    1.80
   2  -8   4    7.15    1.15
   2  -8   4    6.93    1.50
  -3   8  -4   12.00    2.05
  -3   8  -4   11.29    1.73
  -3   8  -4    9.84    1.02
  -3   8  -4   10.07    1.06
  -3   8  -4    8.01    1.67
  -3   8  -4   12.02    2.00
   3  -8   4    8.24    1.70
   3  -8   4   10.36    1.68
   3  -8   4   12.21    1.63
   3  -8   4   10.80    2.03
  -4   8  -4    0.27    0.43
  -4   8  -4    2.26    1.16
  -4   8  -4    0.00    0.57
  -4   8  -4    0.58    0.68
  -4   8  -4    0.89    1.04
   4  -8   4    1.91    1.04
   4  -8   4    0.76    0.76
   4  -8   4    0.55    0.83
  -5   8  -4   14.52    1.68
  -5   8  -4   21.15    3.10
  -5   8  -4   15.73    2.70
   5  -8   4   17.35    2.69
   5  -8   4   20.10    2.64
   5  -8   4   13.52    1.87
  -6   8  -4    4.35    1.66
  -6   8  -4    4.06    0.90
  -6   8  -4    2.54    0.97
  -6   8  -4    5.44    1.34
   6  -8   4    5.29    1.20
   6  -8   4    4.97    1.46
   6  -8   4    5.17    1.63
  -7   8  -4    2.63    1.40
  -7   8  -4    2.41    1.17
  -7   8  -4    3.27    1.73
   7  -8   4    1.42    1.32
   7  -8   4    1.93    1.02
   7  -8   4    3.11    1.42
   6   7  -4    1.40    1.74
  -6  -7   4    3.25    1.27
  -6  -7   4    8.01    1.62
  -6  -7   4    7.10    1.48
   5   7  -4   -0.73    0.55
   5   7  -4    0.62    1.22
  -5  -7   4   -0.85    0.87
  -5  -7   4   -0.23    0.67
  -5  -7   4    0.53    0.46
  -5  -7   4    0.60    0.34
  -5  -7   4    0.31    0.83
   4   7  -4    0.14    0.72
   4   7  -4    1.75    1.18
  -4  -7   4    0.73    0.52
  -4  -7   4    0.84    0.61
  -4  -7   4    1.73    0.77
  -4  -7   4   -0.24    0.70
  -4  -7   4    1.67    0.50
  -4  -7   4    0.55    0.79
   3   7  -4    1.30    1.07
   3   7  -4    0.92    0.98
  -3  -7   4    1.70    0.62
  -3  -7   4    0.95    0.49
  -3  -7   4    2.73    0.65
  -3  -7   4    0.56    0.60
  -3  -7   4    1.43    0.96
  -3  -7   4    0.80    0.68
   2   7  -4    2.92    0.96
   2   7  -4    1.17    0.71
   2   7  -4    2.25    0.57
  -2  -7   4    1.60    0.54
  -2  -7   4    2.40    1.08
  -2  -7   4    0.98    0.63
  -2  -7   4    1.25    0.68
   1   7  -4    2.16    0.81
   1   7  -4    2.47    1.13
   1   7  -4    2.98    0.82
   1   7  -4    5.29    1.24
  -1  -7   4    2.95    0.87
  -1  -7   4    2.20    0.83
  -1  -7   4    3.02    0.89
   0   7  -4    2.47    1.01
   0   7  -4    2.21    0.92
   0   7  -4    1.42    1.08
   0   7  -4    2.92    0.73
   0  -7   4    3.71    1.04
   0  -7   4    1.85    0.76
   0  -7   4    4.12    1.15
  -1   7  -4   -0.29    0.63
  -1   7  -4    1.04    0.86
  -1   7  -4    0.51    0.77
  -1   7  -4    0.52    0.38
   1  -7   4    0.81    0.77
   1  -7   4    0.65    0.75
   1  -7   4    0.55    0.68
  -2   7  -4    0.40    0.38
  -2   7  -4    1.54    0.42
  -2   7  -4    0.23    0.67
  -2   7  -4    1.00    0.72
  -2   7  -4    1.00    0.78
  -2   7  -4    1.33    0.92
  -2   7  -4    0.80    0.33
   2  -7   4    0.13    0.51
   2  -7   4    1.30    0.99
   2  -7   4    0.68    0.66
   2  -7   4    0.18    0.65
  -3   7  -4   37.59    2.87
  -3   7  -4   37.66    2.83
  -3   7  -4   41.00    2.96
  -3   7  -4   33.72    1.92
  -3   7  -4   38.59    1.95
  -3   7  -4   34.67    1.58
  -3   7  -4   41.86    2.37
   3  -7   4   37.72    2.25
   3  -7   4   39.88    2.81
   3  -7   4   39.18    2.61
   3  -7   4   37.03    2.36
  -4   7  -4    0.78    0.94
  -4   7  -4    1.40    0.76
  -4   7  -4    0.27    0.82
  -4   7  -4    1.72    0.77
  -4   7  -4    0.22    0.69
  -4   7  -4    1.87    1.21
   4  -7   4    0.23    0.95
   4  -7   4   -0.69    0.63
   4  -7   4    1.19    0.79
  -5   7  -4    4.08    1.34
  -5   7  -4    4.14    1.44
  -5   7  -4    3.20    0.87
  -5   7  -4    3.09    1.31
   5  -7   4    4.16    1.09
   5  -7   4    3.72    1.26
   5  -7   4    7.21    1.62
  -6   7  -4   12.96    2.51
  -6   7  -4   10.46    2.02
   6  -7   4   12.77    2.31
   6  -7   4   13.74    2.39
  -7   7  -4    7.28    1.90
  -7   7  -4   13.38    2.63
   7  -7   4    9.15    2.14
   7  -7   4    7.46    1.18
  -8   7  -4    2.87    1.17
  -8   7  -4    2.73    1.74
   8  -7   4    2.88    1.76
   8  -7   4    4.84    1.97
   8  -7   4    1.88    1.46
   7   6  -4    1.85    1.46
   7   6  -4   -1.02    1.44
  -7  -6   4    0.90    0.94
  -7  -6   4    0.39    0.36
  -7  -6   4    0.60    0.97
  -7  -6   4    1.13    0.36
   6   6  -4    1.09    1.35
   6   6  -4    2.59    1.64
  -6  -6   4    3.48    0.59
  -6  -6   4    3.41    0.62
  -6  -6   4    3.51    1.15
  -6  -6   4    3.60    1.51
   5   6  -4    9.08    2.19
  -5  -6   4    9.48    0.95
  -5  -6   4   10.62    0.89
  -5  -6   4   12.35    1.85
  -5  -6   4   10.14    1.93
   4   6  -4   18.59    2.58
   4   6  -4   17.98    2.40
  -4  -6   4   17.49    1.22
  -4  -6   4   15.41    1.93
  -4  -6   4   18.24    1.59
  -4  -6   4   17.69    2.15
  -4  -6   4   18.88    1.66
   3   6  -4   -0.34    0.58
   3   6  -4    1.85    1.03
  -3  -6   4   -0.09    0.39
  -3  -6   4    1.07    0.61
  -3  -6   4   -0.30    0.67
  -3  -6   4    0.93    0.47
  -3  -6   4    0.98    0.50
  -3  -6   4    1.32    0.78
   2   6  -4   12.73    1.82
   2   6  -4   14.02    1.93
  -2  -6   4   13.14    1.85
  -2  -6   4   11.85    0.92
  -2  -6   4   12.72    1.22
  -2  -6   4   12.95    1.21
  -2  -6   4   11.44    0.64
  -2  -6   4   11.84    1.93
   1   6  -4   13.06    1.30
   1   6  -4   14.79    2.16
   1   6  -4   15.50    1.96
  -1  -6   4   13.25    0.77
  -1  -6   4   13.97    1.26
  -1  -6   4   13.23    1.77
  -1  -6   4   12.78    1.25
   0   6  -4   20.42    2.61
   0   6  -4   19.68    1.56
   0   6  -4   21.07    1.34
   0  -6   4   17.95    1.52
  -1   6  -4    0.13    0.17
  -1   6  -4   -0.08    0.44
  -1   6  -4   -0.01    0.48
  -1   6  -4   -0.17    0.35
  -1   6  -4    0.17    0.65
  -1   6  -4    0.07    0.15
   1  -6   4    0.83    0.62
   1  -6   4   -0.32    0.24
   1  -6   4    0.29    0.55
   1  -6   4    0.08    0.48
   1  -6   4    0.33    0.46
  -2   6  -4   22.42    1.70
  -2   6  -4   22.47    1.97
  -2   6  -4   22.98    2.87
  -2   6  -4   22.73    2.01
  -2   6  -4   22.62    1.37
   2  -6   4   23.07    1.47
   2  -6   4   22.00    1.69
   2  -6   4   21.16    1.87
   2  -6   4   22.23    1.95
  -3   6  -4   46.68    2.96
  -3   6  -4   48.80    3.00
  -3   6  -4   43.62    2.23
  -3   6  -4   48.01    2.36
  -3   6  -4   47.23    3.02
   3  -6   4   46.70    2.86
   3  -6   4   44.42    2.87
   3  -6   4   49.68    2.98
   3  -6   4   42.38    2.34
   3  -6   4   46.38    2.31
  -4   6  -4    8.60    2.06
  -4   6  -4    8.45    1.19
  -4   6  -4   10.26    1.86
  -4   6  -4    9.01    1.78
   4  -6   4    8.89    1.17
   4  -6   4    9.36    1.55
   4  -6   4    9.51    2.01
   4  -6   4    6.93    1.19
  -5   6  -4   -0.39    0.81
  -5   6  -4    0.55    1.07
   5  -6   4    0.27    0.74
   5  -6   4    0.12    0.57
  -6   6  -4    8.34    1.86
  -6   6  -4   10.86    2.21
   6  -6   4    7.04    1.13
   6  -6   4    4.39    1.46
   6  -6   4    7.61    2.05
  -7   6  -4   -0.05    0.93
  -7   6  -4   -0.33    0.94
   7  -6   4   -0.73    0.91
   7  -6   4    1.92    1.28
   7  -6   4   -0.21    1.16
   7  -6   4   -0.31    0.47
  -8   6  -4    0.80    1.18
  -8   6  -4   -0.29    1.30
   8  -6   4   -0.54    1.22
   8  -6   4    2.09    1.47
   8  -6   4    2.43    1.35
   8   5  -4   -0.20    1.58
   8   5  -4    4.00    1.84
  -8  -5   4    0.75    1.09
  -8  -5   4    1.05    0.56
  -8  -5   4    0.95    1.30
   7   5  -4    1.03    1.58
  -7  -5   4    4.96    1.67
  -7  -5   4    4.12    0.75
  -7  -5   4    3.68    1.03
  -7  -5   4    5.17    0.92
   6   5  -4    2.57    1.52
   6   5  -4    4.03    1.37
  -6  -5   4    4.13    1.45
  -6  -5   4    2.84    0.94
  -6  -5   4    2.43    0.69
  -6  -5   4    2.83    1.14
  -6  -5   4    2.22    0.63
   5   5  -4    3.11    1.64
   5   5  -4    5.06    1.53
  -5  -5   4    3.25    0.92
  -5  -5   4    3.37    1.06
  -5  -5   4    3.75    0.78
  -5  -5   4    4.11    0.74
   4   5  -4    0.14    0.82
   4   5  -4    0.89    0.80
   4   5  -4    2.36    0.81
  -4  -5   4    1.24    0.47
  -4  -5   4    0.23    0.69
  -4  -5   4   -0.06    0.44
  -4  -5   4    1.19    0.77
  -4  -5   4   -0.87    0.58
  -4  -5   4    1.05    0.69
   3   5  -4    0.56    0.62
   3   5  -4    0.20    0.46
   3   5  -4    0.44    0.28
   3   5  -4    1.56    0.87
   3   5  -4    0.83    0.30
  -3  -5   4    1.10    0.61
  -3  -5   4    0.13    0.39
  -3  -5   4    1.01    0.48
  -3  -5   4    0.50    0.59
  -3  -5   4    0.47    0.46
   2   5  -4    6.22    1.33
  -2  -5   4    6.79    1.07
  -2  -5   4    5.98    1.20
  -2  -5   4    5.08    0.97
  -2  -5   4    5.86    0.90
  -2  -5   4    6.67    0.99
   1   5  -4   -0.07    0.59
   1   5  -4    0.04    0.41
   1   5  -4    0.91    0.58
   1   5  -4    1.38    0.67
  -1  -5   4    0.83    0.61
  -1  -5   4    0.73    0.18
  -1  -5   4    0.69    0.15
  -1  -5   4    1.42    0.68
  -1  -5   4    0.90    0.59
  -1  -5   4    0.33    0.51
  -1  -5   4    0.70    0.58
  -1  -5   4    0.60    0.53
   0   5  -4    5.90    1.06
   0   5  -4    5.66    1.09
   0   5  -4    4.11    0.84
   0   5  -4    6.44    1.00
   0   5  -4    5.74    1.09
   0   5  -4    6.46    1.13
   0  -5   4    5.01    1.13
   0  -5   4    4.65    0.28
   0  -5   4    5.49    1.15
   0  -5   4    5.21    0.28
   0  -5   4    6.51    1.18
   0  -5   4    5.43    1.03
   0  -5   4    5.62    1.00
  -1   5  -4    3.41    0.99
  -1   5  -4    3.50    0.81
  -1   5  -4    1.87    0.68
  -1   5  -4    2.56    0.83
   1  -5   4    3.47    0.97
   1  -5   4    3.60    0.93
   1  -5   4    2.40    0.76
   1  -5   4    2.96    0.82
   1  -5   4    2.60    0.68
  -2   5  -4   30.18    1.72
  -2   5  -4   30.52    2.13
  -2   5  -4   28.82    2.12
  -2   5  -4   32.83    2.23
  -2   5  -4   31.29    1.64
   2  -5   4   29.56    1.72
   2  -5   4   30.85    1.68
   2  -5   4   28.97    2.04
   2  -5   4   28.11    2.02
   2  -5   4   27.77    1.78
   2  -5   4   31.57    2.07
  -3   5  -4    0.85    0.94
  -3   5  -4    2.37    0.57
  -3   5  -4    1.73    0.86
  -3   5  -4    1.87    0.80
  -3   5  -4    2.36    1.06
  -3   5  -4    2.90    0.81
   3  -5   4    1.44    0.61
   3  -5   4    2.47    0.60
   3  -5   4    2.40    0.88
   3  -5   4    1.84    0.75
   3  -5   4    2.57    0.70
  -4   5  -4   67.47    3.57
  -4   5  -4   68.49    3.72
  -4   5  -4   58.97    3.15
   4  -5   4   75.75    3.63
   4  -5   4   72.78    2.81
   4  -5   4   66.80    3.36
  -5   5  -4    2.49    1.14
  -5   5  -4    3.88    1.33
  -5   5  -4    1.85    1.31
   5  -5   4    2.25    0.70
   5  -5   4    3.09    1.11
   5  -5   4    3.85    1.24
  -6   5  -4   11.19    2.00
   6  -5   4   12.22    2.29
   6  -5   4   12.74    2.03
   6  -5   4   12.30    1.05
   6  -5   4   12.22    2.35
  -7   5  -4   -0.12    0.77
  -7   5  -4   -0.19    0.86
   7  -5   4   -2.53    0.82
   7  -5   4    0.84    1.25
   7  -5   4    2.48    1.40
  -8   5  -4    0.76    1.21
  -8   5  -4   -1.87    0.89
   8  -5   4    1.38    1.32
   8  -5   4    1.05    1.45
   8  -5   4   -0.28    0.83
   8   4  -4    1.78    1.62
   8   4  -4    1.60    1.38
  -8  -4   4    1.63    1.27
  -8  -4   4    0.87    0.67
  -8  -4   4    1.01    0.62
  -8  -4   4    1.55    0.82
   7   4  -4    1.08    1.04
   7   4  -4    1.49    1.50
  -7  -4   4    0.54    0.68
  -7  -4   4    0.31    0.49
   6   4  -4    0.58    1.18
   6   4  -4    1.38    1.00
  -6  -4   4    0.75    0.64
  -6  -4   4    0.76    0.70
  -6  -4   4    0.01    0.38
  -6  -4   4   -0.22    0.53
  -6  -4   4    0.24    0.84
   5   4  -4    3.29    1.35
   5   4  -4    2.82    1.21
  -5  -4   4    1.41    0.69
  -5  -4   4    4.10    0.80
  -5  -4   4    3.19    0.95
  -5  -4   4    5.59    1.51
  -5  -4   4    2.59    0.94
  -5  -4   4    5.19    1.05
   4   4  -4    6.97    1.30
   4   4  -4    7.33    0.53
   4   4  -4    7.17    1.62
   4   4  -4    7.15    0.51
  -4  -4   4    8.27    1.28
  -4  -4   4    8.76    1.07
  -4  -4   4    7.75    1.07
  -4  -4   4    8.88    1.31
  -4  -4   4    8.46    1.29
   3   4  -4   56.13    2.38
   3   4  -4   60.46    1.88
   3   4  -4   57.93    3.03
   3   4  -4   55.72    1.80
   3   4  -4   58.99    2.64
  -3  -4   4   58.57    2.28
  -3  -4   4   57.73    2.82
  -3  -4   4   59.02    2.28
  -3  -4   4   59.08    2.66
  -3  -4   4   58.95    2.20
  -3  -4   4   59.74    2.29
  -3  -4   4   55.01    2.27
   2   4  -4   14.69    1.49
   2   4  -4   13.45    1.04
   2   4  -4   13.87    1.47
   2   4  -4   13.54    1.37
   2   4  -4   13.45    1.12
  -2  -4   4   15.17    1.17
  -2  -4   4   14.87    1.13
  -2  -4   4   13.74    1.41
  -2  -4   4   16.78    1.50
  -2  -4   4   14.62    1.14
  -2  -4   4   14.81    0.99
  -2  -4   4   16.30    1.40
   1   4  -4  117.22    3.64
   1   4  -4  113.24    3.64
   1   4  -4  104.74    3.27
   1   4  -4  113.70    3.18
   1   4  -4  114.22    2.47
   1   4  -4  111.89    3.81
  -1  -4   4  110.99    3.80
  -1  -4   4  115.82    3.71
  -1  -4   4  123.32    3.85
  -1  -4   4  112.62    3.35
  -1  -4   4  114.32    3.44
  -1  -4   4  115.47    2.55
   0   4  -4   22.54    1.65
   0   4  -4   22.31    1.01
   0   4  -4   21.70    1.44
   0   4  -4   23.01    1.60
   0  -4   4   23.57    1.64
   0  -4   4   22.82    1.63
   0  -4   4   21.40    1.51
   0  -4   4   18.38    1.45
   0  -4   4   22.96    1.49
  -1   4  -4   11.45    1.40
  -1   4  -4   11.12    1.36
  -1   4  -4    7.79    1.28
  -1   4  -4    7.44    0.80
  -1   4  -4    8.52    1.31
  -1   4  -4    9.64    1.46
   1  -4   4    6.79    1.18
   1  -4   4    9.52    1.25
   1  -4   4    9.49    1.32
   1  -4   4    9.49    0.95
   1  -4   4   11.18    1.45
  -2   4  -4    3.53    0.91
  -2   4  -4    7.06    1.04
  -2   4  -4    5.85    1.10
  -2   4  -4    4.92    0.94
  -2   4  -4    2.21    0.76
  -2   4  -4    5.71    1.21
   2  -4   4    5.71    1.09
   2  -4   4    4.01    0.79
   2  -4   4    5.13    1.08
   2  -4   4    4.35    0.85
   2  -4   4    5.33    1.09
   2  -4   4    4.68    0.76
  -3   4  -4   13.32    1.85
  -3   4  -4   12.80    1.16
  -3   4  -4   13.85    1.78
  -3   4  -4   14.46    1.93
   3  -4   4   10.94    1.03
   3  -4   4   11.67    1.26
   3  -4   4   10.78    0.81
   3  -4   4   13.80    1.74
   3  -4   4   11.74    1.60
   3  -4   4   10.84    1.62
  -4   4  -4    1.23    0.71
  -4   4  -4    0.56    0.71
  -4   4  -4    0.60    0.45
   4  -4   4    1.19    0.70
   4  -4   4    0.97    0.49
   4  -4   4    0.86    0.74
  -5   4  -4   15.88    2.21
  -5   4  -4   13.92    2.01
  -5   4  -4   17.16    2.25
   5  -4   4   14.44    2.29
   5  -4   4   14.92    1.08
   5  -4   4   15.30    2.06
   5  -4   4   15.33    2.31
  -6   4  -4   31.49    2.61
  -6   4  -4   29.39    2.54
  -6   4  -4   30.05    2.68
   6  -4   4   31.17    2.98
   6  -4   4   29.41    2.91
   6  -4   4   30.53    1.76
   6  -4   4   33.82    2.48
  -7   4  -4    0.45    1.02
  -7   4  -4    0.29    1.00
  -7   4  -4   -2.58    1.06
   7  -4   4   -0.30    1.15
   7  -4   4    0.73    1.00
  -8   4  -4    4.79    1.38
  -8   4  -4    4.02    1.59
   8  -4   4    1.36    1.62
   8  -4   4    1.05    1.28
   8  -4   4    6.33    1.97
   9   3  -4   -1.91    1.57
   9   3  -4   -0.39    1.38
   9   3  -4   -0.18    1.06
  -9  -3   4    1.56    1.43
  -9  -3   4    0.44    0.82
   8   3  -4   -2.37    1.10
  -8  -3   4   -0.62    0.68
  -8  -3   4    0.39    1.00
  -8  -3   4    1.02    0.64
  -8  -3   4   -0.01    0.42
   7   3  -4   13.72    2.34
   7   3  -4   16.59    2.99
   7   3  -4   11.79    1.63
  -7  -3   4   13.63    1.22
  -7  -3   4   12.39    2.16
  -7  -3   4   13.29    1.59
   6   3  -4   38.32    2.97
   6   3  -4   38.04    3.97
   6   3  -4   42.81    2.22
  -6  -3   4   38.08    1.99
  -6  -3   4   34.88    2.69
  -6  -3   4   38.83    2.07
  -6  -3   4   40.10    2.08
   5   3  -4    8.73    1.60
   5   3  -4   11.14    0.79
   5   3  -4   14.64    1.29
   5   3  -4    9.39    1.95
  -5  -3   4   10.11    1.72
  -5  -3   4   12.92    1.08
  -5  -3   4    8.98    1.21
  -5  -3   4   11.41    1.14
  -5  -3   4   11.47    1.07
   4   3  -4   66.54    2.04
   4   3  -4   60.18    1.95
   4   3  -4   64.14    2.90
   4   3  -4   63.13    2.59
   4   3  -4   69.81    3.54
  -4  -3   4   60.42    2.79
  -4  -3   4   64.95    2.72
  -4  -3   4   64.68    2.60
  -4  -3   4   64.61    2.98
  -4  -3   4   59.27    2.39
  -4  -3   4   64.23    2.14
   3   3  -4   43.61    1.68
   3   3  -4   45.48    2.38
   3   3  -4   49.13    2.70
   3   3  -4   43.32    2.01
   3   3  -4   43.37    2.07
   3   3  -4   46.04    1.75
  -3  -3   4   42.77    1.91
  -3  -3   4   44.98    2.11
  -3  -3   4   44.22    2.35
  -3  -3   4   44.15    1.60
  -3  -3   4   40.86    1.83
  -3  -3   4   39.48    2.27
  -3  -3   4   43.95    2.06
   2   3  -4    0.26    0.41
   2   3  -4   -0.19    0.43
   2   3  -4    0.18    0.58
   2   3  -4   -0.49    0.55
  -2  -3   4    0.81    0.50
  -2  -3   4    0.67    0.45
  -2  -3   4   -0.16    0.39
  -2  -3   4   -0.04    0.25
  -2  -3   4   -0.36    0.40
  -2  -3   4   -0.01    0.32
  -2  -3   4   -1.01    0.45
   1   3  -4   37.84    1.91
   1   3  -4   35.71    1.45
   1   3  -4   38.64    1.71
   1   3  -4   41.93    1.97
   1   3  -4   36.66    1.79
  -1  -3   4   38.09    1.87
  -1  -3   4   36.07    1.93
  -1  -3   4   41.73    1.97
  -1  -3   4   37.32    1.76
  -1  -3   4   36.42    1.47
  -1  -3   4   38.76    1.88
   0   3  -4    4.64    0.91
   0   3  -4    5.22    0.87
   0   3  -4    6.55    1.19
   0   3  -4    6.02    0.91
   0   3  -4    3.26    0.80
   0  -3   4    5.15    0.89
   0  -3   4    4.49    0.77
   0  -3   4    4.37    0.86
   0  -3   4    5.01    0.89
   0  -3   4    4.84    0.69
   0  -3   4    6.85    1.07
   0  -3   4    6.70    1.05
  -1   3  -4    1.97    0.71
  -1   3  -4    3.54    0.60
  -1   3  -4    3.46    0.88
  -1   3  -4    2.53    0.73
  -1   3  -4    4.20    0.93
  -1   3  -4    4.31    0.84
  -1   3  -4    2.58    0.82
   1  -3   4    4.04    0.82
   1  -3   4    3.15    0.81
   1  -3   4    3.96    0.90
   1  -3   4    2.62    0.65
   1  -3   4    2.90    0.80
   1  -3   4    2.72    0.61
  -2   3  -4  164.92    4.81
  -2   3  -4  163.93    4.26
  -2   3  -4  163.57    4.26
  -2   3  -4  171.68    4.09
  -2   3  -4  167.62    4.60
  -2   3  -4  166.53    4.60
  -2   3  -4  162.60    4.47
   2  -3   4  161.01    4.36
   2  -3   4  162.76    4.00
   2  -3   4  163.47    4.66
   2  -3   4  165.43    4.44
  -3   3  -4    3.71    0.89
  -3   3  -4    3.09    0.67
  -3   3  -4    6.00    1.28
  -3   3  -4    3.64    0.90
  -3   3  -4    4.71    0.99
  -3   3  -4    2.40    0.85
   3  -3   4    4.45    0.96
   3  -3   4    4.27    1.04
   3  -3   4    3.80    1.00
   3  -3   4    4.37    1.07
   3  -3   4    2.90    0.96
   3  -3   4    4.10    0.73
  -4   3  -4    9.84    1.67
  -4   3  -4    7.10    1.63
  -4   3  -4   11.33    0.90
   4  -3   4    9.79    0.83
   4  -3   4    8.73    1.60
   4  -3   4   11.10    1.65
   4  -3   4    7.45    1.59
   4  -3   4   10.19    1.61
  -5   3  -4   -0.54    0.52
  -5   3  -4   -0.46    0.56
  -5   3  -4    0.52    0.80
   5  -3   4    0.07    0.29
   5  -3   4   -0.03    0.67
   5  -3   4    0.05    0.80
   5  -3   4   -0.22    0.35
  -6   3  -4   34.20    2.71
  -6   3  -4   35.49    2.67
  -6   3  -4   32.28    2.66
   6  -3   4   42.49    3.34
   6  -3   4   41.28    3.46
  -7   3  -4   19.97    2.66
  -7   3  -4   17.30    2.39
  -7   3  -4   19.41    3.08
   7  -3   4   18.70    3.08
   7  -3   4   19.39    3.16
   7  -3   4   22.73    2.08
  -8   3  -4    4.45    1.37
  -8   3  -4    3.75    1.34
   8  -3   4    5.89    1.55
   8  -3   4    2.45    1.66
   8  -3   4    4.14    1.72
   9   2  -4    0.21    0.98
   9   2  -4    0.96    1.49
  -9  -2   4    0.30    0.78
  -9  -2   4   -1.25    0.70
   8   2  -4    1.13    1.29
   8   2  -4    6.51    2.02
   8   2  -4    3.66    1.11
  -8  -2   4    6.67    1.71
  -8  -2   4    5.55    1.31
  -8  -2   4    3.44    1.18
   7   2  -4   -0.87    0.79
   7   2  -4    0.91    0.66
   7   2  -4    0.51    1.03
  -7  -2   4    2.59    0.90
  -7  -2   4    0.60    0.70
  -7  -2   4    0.80    0.48
  -7  -2   4    0.91    0.67
   6   2  -4    3.90    0.81
   6   2  -4    2.19    1.10
   6   2  -4    2.95    0.74
  -6  -2   4    2.81    0.64
  -6  -2   4    2.90    0.98
  -6  -2   4    2.58    0.80
  -6  -2   4    3.44    0.84
   5   2  -4    1.81    0.84
   5   2  -4    4.34    1.48
   5   2  -4    1.92    0.58
  -5  -2   4    2.52    0.74
  -5  -2   4    1.18    0.52
  -5  -2   4    3.50    0.78
  -5  -2   4    2.92    0.96
   4   2  -4   57.98    2.30
   4   2  -4   59.70    2.14
   4   2  -4   52.12    2.96
   4   2  -4   67.72    2.93
   4   2  -4   60.72    2.17
  -4  -2   4   58.19    2.33
  -4  -2   4   56.77    2.80
  -4  -2   4   60.52    2.42
  -4  -2   4   62.40    2.34
  -4  -2   4   58.18    2.75
  -4  -2   4   55.43    2.73
   3   2  -4  123.97    3.23
   3   2  -4  120.22    3.51
   3   2  -4  120.32    3.41
   3   2  -4  129.87    4.40
  -3  -2   4  122.61    3.45
  -3  -2   4  120.87    3.68
  -3  -2   4  118.48    3.35
  -3  -2   4  121.64    2.21
  -3  -2   4  122.44    3.90
  -3  -2   4  123.49    3.49
   2   2  -4   15.71    1.12
   2   2  -4   14.41    1.12
   2   2  -4   12.89    1.17
   2   2  -4   15.86    1.49
   2   2  -4   12.88    0.99
   2   2  -4   13.76    0.94
   2   2  -4   14.34    1.13
  -2  -2   4   13.82    1.13
  -2  -2   4   17.03    1.35
  -2  -2   4   14.20    0.60
  -2  -2   4   14.05    1.13
  -2  -2   4   14.26    1.16
  -2  -2   4   15.01    1.14
   1   2  -4   17.26    1.11
   1   2  -4   17.25    1.11
   1   2  -4   15.84    1.21
   1   2  -4   16.36    1.17
   1   2  -4   18.59    1.21
  -1  -2   4   17.85    1.22
  -1  -2   4   18.66    1.14
  -1  -2   4   19.40    1.22
  -1  -2   4   19.63    1.23
  -1  -2   4   16.87    1.24
   0   2  -4    0.01    0.34
   0   2  -4    0.61    0.41
   0   2  -4    0.18    0.36
   0   2  -4    0.11    0.27
   0   2  -4    0.33    0.33
   0   2  -4    0.04    0.49
   0  -2   4   -0.16    0.40
   0  -2   4    0.03    0.29
   0  -2   4    0.40    0.35
   0  -2   4    0.30    0.39
   0  -2   4    0.28    0.34
   0  -2   4    0.01    0.38
  -1   2  -4   49.20    2.14
  -1   2  -4   51.90    2.18
  -1   2  -4   49.96    1.77
  -1   2  -4   54.54    2.00
  -1   2  -4   49.18    2.04
  -1   2  -4   52.65    2.34
   1  -2   4   54.00    1.97
   1  -2   4   50.35    2.26
   1  -2   4   55.06    2.18
   1  -2   4   50.03    2.02
   1  -2   4   54.72    2.57
   1  -2   4   51.87    2.04
   1  -2   4   47.73    2.13
  -2   2  -4  165.09    5.13
  -2   2  -4  155.57    4.20
  -2   2  -4  166.59    4.64
  -2   2  -4  164.00    4.64
  -2   2  -4  166.19    4.41
  -2   2  -4  161.46    3.76
   2  -2   4  161.45    4.43
   2  -2   4  163.82    4.12
   2  -2   4  156.67    4.56
   2  -2   4  161.74    3.22
   2  -2   4  170.92    4.24
   2  -2   4  165.77    4.85
   2  -2   4  159.32    4.32
  -3   2  -4   15.21    1.02
  -3   2  -4   17.19    1.54
  -3   2  -4   19.33    1.52
  -3   2  -4   15.40    1.60
  -3   2  -4   18.94    1.51
   3  -2   4   18.05    1.46
   3  -2   4   17.53    1.06
   3  -2   4   15.51    1.59
   3  -2   4   17.45    1.68
   3  -2   4   16.73    1.45
   3  -2   4   16.79    1.31
  -4   2  -4   12.89    2.01
  -4   2  -4   10.68    0.81
  -4   2  -4   13.42    1.33
  -4   2  -4   13.00    1.64
   4  -2   4   10.43    2.08
   4  -2   4   12.67    1.65
   4  -2   4   14.01    1.67
  -5   2  -4    7.85    1.51
  -5   2  -4    5.93    1.37
  -5   2  -4    4.97    1.11
   5  -2   4    7.17    1.61
   5  -2   4    8.33    1.77
  -6   2  -4    1.59    0.87
  -6   2  -4    0.97    0.85
  -6   2  -4    1.61    0.89
   6  -2   4    1.26    0.82
   6  -2   4    1.93    1.06
   6  -2   4    0.83    1.18
  -7   2  -4   -0.55    0.95
  -7   2  -4   -1.55    0.83
  -7   2  -4   -0.22    0.82
   7  -2   4   -0.56    0.58
   7  -2   4   -0.32    1.45
  -8   2  -4    6.50    1.69
  -8   2  -4    4.69    1.72
  -8   2  -4   10.73    2.12
   8  -2   4   13.66    2.76
   8  -2   4    6.50    2.30
   9   1  -4   -0.23    1.72
   9   1  -4    1.63    1.20
   9   1  -4   -0.76    0.89
  -9  -1   4    1.49    0.95
  -9  -1   4    1.70    1.11
   8   1  -4   -0.43    0.68
   8   1  -4    0.42    0.79
   8   1  -4   -0.53    1.26
   8   1  -4   -0.01    0.71
  -8  -1   4    0.71    0.65
  -8  -1   4   -0.88    0.69
  -8  -1   4   -0.63    0.70
   7   1  -4   71.50    4.27
   7   1  -4   73.04    4.56
   7   1  -4   80.41    3.20
  -7  -1   4   79.98    2.30
  -7  -1   4   71.77    3.42
  -7  -1   4   81.66    4.16
  -7  -1   4   82.73    3.58
   6   1  -4   24.64    2.37
   6   1  -4   23.70    1.50
   6   1  -4   24.46    1.61
   6   1  -4   21.66    2.33
   6   1  -4   24.86    1.36
  -6  -1   4   22.99    1.82
  -6  -1   4   23.45    2.13
  -6  -1   4   27.08    1.95
  -6  -1   4   24.10    1.33
   5   1  -4   17.98    1.18
   5   1  -4   16.88    1.08
   5   1  -4   17.27    2.36
  -5  -1   4   17.91    1.67
  -5  -1   4   15.99    1.15
  -5  -1   4   15.89    1.60
  -5  -1   4   19.01    1.54
   4   1  -4   57.73    2.27
   4   1  -4   61.19    2.23
   4   1  -4   60.65    2.81
   4   1  -4   64.36    3.21
   4   1  -4   57.71    1.58
  -4  -1   4   59.35    2.44
  -4  -1   4   55.46    2.63
  -4  -1   4   57.67    2.12
  -4  -1   4   57.03    3.17
  -4  -1   4   59.54    2.72
   3   1  -4  300.72    7.25
   3   1  -4  303.49    6.48
   3   1  -4  284.00    7.71
   3   1  -4  305.81    6.64
   3   1  -4  298.66    6.03
   3   1  -4  302.71    6.15
  -3  -1   4  299.81    6.52
  -3  -1   4  296.55    6.60
  -3  -1   4  304.32    6.51
  -3  -1   4  303.58    6.31
  -3  -1   4  298.01    6.17
  -3  -1   4  301.09    5.92
   2   1  -4  351.46    8.95
   2   1  -4  355.36    6.59
   2   1  -4  359.01    6.99
   2   1  -4  361.25    8.29
   2   1  -4  349.43    6.63
  -2  -1   4  343.90    6.83
  -2  -1   4  355.10    6.58
  -2  -1   4  348.54    6.69
  -2  -1   4  349.33    6.68
  -2  -1   4  349.51    6.94
   1   1  -4   48.52    1.89
   1   1  -4   50.15    2.03
   1   1  -4   46.37    1.63
   1   1  -4   46.99    1.97
   1   1  -4   44.95    1.78
  -1  -1   4   47.20    1.44
  -1  -1   4   46.64    1.93
  -1  -1   4   42.84    1.84
  -1  -1   4   47.85    1.85
  -1  -1   4   49.15    1.68
   0   1  -4   76.04    2.35
   0   1  -4   73.88    2.28
   0   1  -4   69.39    2.50
   0   1  -4   71.62    1.79
   0   1  -4   73.86    2.41
   0  -1   4   74.18    2.51
   0  -1   4   76.00    2.45
   0  -1   4   71.87    2.50
   0  -1   4   74.51    2.30
   0  -1   4   73.30    2.16
   0  -1   4   73.43    1.85
   0  -1   4   72.13    2.32
  -1   1  -4  110.07    3.47
  -1   1  -4  114.71    2.32
  -1   1  -4  114.77    3.26
  -1   1  -4  108.22    2.87
  -1   1  -4  112.90    3.40
  -1   1  -4  113.39    3.41
  -1   1  -4  113.96    3.46
   1  -1   4  112.04    3.49
   1  -1   4  115.89    2.94
   1  -1   4  112.90    3.19
   1  -1   4  105.39    3.42
   1  -1   4  117.67    2.89
   1  -1   4  113.00    3.29
   1  -1   4  115.90    3.48
  -2   1  -4   22.17    1.17
  -2   1  -4   20.17    1.40
  -2   1  -4   20.88    1.62
  -2   1  -4   23.11    1.62
  -2   1  -4   20.89    1.30
  -2   1  -4   20.94    1.72
   2  -1   4   16.09    1.60
   2  -1   4   20.73    1.24
   2  -1   4   21.05    1.43
   2  -1   4   22.14    1.69
   2  -1   4   18.76    1.26
   2  -1   4   20.23    1.41
  -3   1  -4   48.78    2.27
  -3   1  -4   52.60    2.26
  -3   1  -4   45.83    1.70
  -3   1  -4   48.55    2.38
  -3   1  -4   46.36    2.65
   3  -1   4   46.51    2.75
   3  -1   4   54.15    2.92
   3  -1   4   52.00    1.96
   3  -1   4   46.36    2.14
   3  -1   4   53.23    2.30
   3  -1   4   50.99    2.12
  -4   1  -4  140.28    6.13
  -4   1  -4  142.56    4.30
  -4   1  -4  141.56    4.31
  -4   1  -4  142.85    5.24
  -4   1  -4  136.99    3.09
   4  -1   4  135.78    4.07
   4  -1   4  147.72    5.74
   4  -1   4  131.25    4.09
  -5   1  -4    2.85    0.42
  -5   1  -4    5.15    1.48
  -5   1  -4    4.32    1.04
  -5   1  -4    3.19    1.02
   5  -1   4    2.84    1.19
   5  -1   4    4.78    1.60
  -6   1  -4   60.91    4.02
  -6   1  -4   68.61    3.49
  -6   1  -4   64.98    3.21
  -6   1  -4   65.19    3.44
   6  -1   4   59.56    4.23
   6  -1   4   62.26    4.03
  -7   1  -4   10.58    2.27
  -7   1  -4   11.78    1.89
  -7   1  -4    9.05    1.71
  -7   1  -4   13.80    2.06
   7  -1   4   10.39    2.36
   7  -1   4   11.33    2.51
   7  -1   4    9.57    1.74
  -8   1  -4   19.56    2.59
  -8   1  -4   18.68    2.56
  -8   1  -4   22.62    3.40
   8  -1   4   13.73    2.66
   8  -1   4   22.23    3.71
   9   0  -4    1.07    1.08
   9   0  -4    5.19    1.93
   9   0  -4    0.94    1.47
  -9   0   4    0.65    1.20
  -9   0   4    0.89    0.77
   8   0  -4    0.38    0.82
   8   0  -4    0.44    0.77
   8   0  -4   -1.09    1.19
  -8   0   4   -0.48    0.62
  -8   0   4   -0.99    0.74
   7   0  -4    1.33    0.94
   7   0  -4    0.65    0.66
   7   0  -4    1.29    0.53
   7   0  -4    0.21    0.55
   7   0  -4    3.82    1.41
  -7   0   4    1.68    1.09
  -7   0   4   -0.02    0.68
  -7   0   4    1.29    1.07
   6   0  -4   14.16    1.06
   6   0  -4   12.53    2.00
   6   0  -4   15.26    1.41
   6   0  -4   14.08    1.21
   6   0  -4   17.40    2.56
  -6   0   4   15.17    1.54
  -6   0   4   13.46    0.99
  -6   0   4   14.00    1.91
   5   0  -4    2.58    0.72
   5   0  -4    1.14    0.84
   5   0  -4    2.57    0.61
   5   0  -4    1.88    0.95
  -5   0   4    2.03    0.75
  -5   0   4    2.19    0.82
  -5   0   4    2.99    0.65
   4   0  -4    1.86    0.62
   4   0  -4    0.59    0.48
   4   0  -4    0.69    0.51
   4   0  -4    1.26    0.67
   4   0  -4    0.06    0.50
   4   0  -4    0.48    0.64
  -4   0   4    1.01    0.68
  -4   0   4    0.24    0.43
  -4   0   4    0.61    0.50
  -4   0   4    0.53    0.45
   3   0  -4   45.41    2.26
   3   0  -4   43.31    2.07
   3   0  -4   45.45    2.49
   3   0  -4   42.97    2.05
   3   0  -4   43.25    1.97
  -3   0   4   45.26    1.83
  -3   0   4   44.59    2.10
  -3   0   4   44.65    2.29
  -3   0   4   48.80    2.16
  -3   0   4   46.38    2.13
   2   0  -4  101.71    2.45
   2   0  -4   97.12    2.78
   2   0  -4  106.78    3.07
   2   0  -4  102.21    3.15
   2   0  -4  108.18    3.36
  -2   0   4  102.84    3.09
  -2   0   4  107.20    2.89
  -2   0   4  103.58    2.88
  -2   0   4  103.19    3.16
  -2   0   4  107.66    3.35
   1   0  -4  146.21    3.25
   1   0  -4  140.42    3.58
   1   0  -4  146.37    3.49
   1   0  -4  143.17    3.86
  -1   0   4  140.10    3.43
  -1   0   4  149.90    3.93
  -1   0   4  145.42    3.32
  -1   0   4  140.39    3.57
  -1   0   4  147.80    3.79
   0   0  -4   96.69    3.13
   0   0  -4   88.76    2.56
   0   0  -4   96.72    2.78
   0   0  -4   92.78    2.81
   0   0  -4   91.09    2.86
   0   0   4   88.03    1.79
   0   0   4   95.16    2.65
   0   0   4   94.10    2.16
   0   0   4   88.99    2.96
   0   0   4   96.03    3.32
   0   0   4   90.72    2.80
  -1   0  -4   35.31    1.50
  -1   0  -4   35.70    1.79
  -1   0  -4   34.89    2.04
  -1   0  -4   34.29    1.65
  -1   0  -4   34.10    1.51
  -1   0  -4   35.71    1.99
  -1   0  -4   35.26    1.93
   1   0   4   35.80    1.54
   1   0   4   34.77    1.94
   1   0   4   34.37    1.24
   1   0   4   37.55    1.71
   1   0   4   36.09    2.04
   1   0   4   35.07    1.71
  -2   0  -4  190.46    5.44
  -2   0  -4  189.36    4.10
  -2   0  -4  191.05    5.35
  -2   0  -4  185.22    4.73
  -2   0  -4  193.78    5.52
  -2   0  -4  185.24    4.46
   2   0   4  185.81    4.36
   2   0   4  197.91    3.78
   2   0   4  190.43    5.69
   2   0   4  194.19    5.52
   2   0   4  195.85    4.52
   2   0   4  189.73    4.11
   2   0   4  187.00    3.94
  -3   0  -4   12.32    1.08
  -3   0  -4   10.58    1.66
  -3   0  -4   12.21    0.89
  -3   0  -4   13.83    1.16
  -3   0  -4    9.44    1.43
  -3   0  -4   12.95    1.87
  -3   0  -4   12.65    1.27
   3   0   4   13.13    1.87
   3   0   4    9.73    1.72
   3   0   4   11.46    0.99
   3   0   4   11.94    0.80
   3   0   4   12.25    1.07
  -4   0  -4    4.81    0.86
  -4   0  -4    5.87    1.10
  -4   0  -4    4.48    0.84
  -4   0  -4    6.31    1.09
  -4   0  -4    5.50    0.71
  -4   0  -4    4.84    1.34
   4   0   4    6.39    1.04
   4   0   4    5.28    0.87
   4   0   4    3.98    1.28
   4   0   4    5.47    1.47
  -5   0  -4   32.50    1.90
  -5   0  -4   37.40    2.98
  -5   0  -4   34.59    2.22
   5   0   4   34.58    3.04
   5   0   4   33.76    2.13
   5   0   4   32.02    2.82
  -6   0  -4    0.07    0.59
  -6   0  -4   -0.21    0.80
  -6   0  -4    0.52    0.67
  -6   0  -4    0.48    0.66
   6   0   4   -0.23    0.68
   6   0   4    1.15    1.21
  -7   0  -4    2.70    0.96
  -7   0  -4    1.70    1.02
  -7   0  -4    0.82    1.22
  -7   0  -4    1.14    0.85
   7   0   4    0.34    1.18
   7   0   4    1.35    0.79
  -8   0  -4    4.28    1.72
  -8   0  -4    2.57    1.06
  -8   0  -4    2.00    1.07
   8   0   4    3.54    1.57
   8   0   4    0.71    1.43
   9  -1  -4    3.13    1.22
   9  -1  -4    3.47    1.71
   9  -1  -4    2.20    1.20
   9  -1  -4    3.31    1.95
  -9   1   4    4.52    1.37
  -9   1   4    4.79    1.40
   8  -1  -4   -0.38    0.52
   8  -1  -4    1.42    1.17
   8  -1  -4    0.78    0.70
   8  -1  -4   -0.09    1.20
  -8   1   4    0.87    1.02
   7  -1  -4   16.25    2.33
   7  -1  -4   17.92    1.61
   7  -1  -4   23.34    3.16
   7  -1  -4   13.97    2.84
   7  -1  -4   18.15    1.13
  -7   1   4   16.90    2.32
  -7   1   4   19.02    1.96
  -7   1   4   15.92    2.17
   6  -1  -4    0.46    0.47
   6  -1  -4    0.54    0.41
   6  -1  -4    1.11    0.97
   6  -1  -4    0.38    0.54
   6  -1  -4   -0.43    0.82
  -6   1   4   -0.42    0.65
  -6   1   4    2.23    0.87
  -6   1   4   -0.04    0.53
   5  -1  -4   12.12    0.97
   5  -1  -4   12.85    1.92
   5  -1  -4   14.95    1.75
  -5   1   4   10.31    0.89
  -5   1   4   11.58    1.65
  -5   1   4   13.40    1.67
  -5   1   4    9.39    1.46
   4  -1  -4    1.22    0.74
   4  -1  -4    1.07    0.46
   4  -1  -4    1.36    0.79
   4  -1  -4    1.15    0.60
  -4   1   4    0.74    0.41
  -4   1   4    2.42    0.79
  -4   1   4    2.03    0.72
  -4   1   4    1.25    0.68
  -4   1   4    0.70    0.38
   3  -1  -4  211.05    5.30
   3  -1  -4  209.84    4.65
   3  -1  -4  213.95    5.15
   3  -1  -4  208.22    5.50
   3  -1  -4  214.35    5.62
  -3   1   4  217.15    4.94
  -3   1   4  212.33    5.32
  -3   1   4  209.96    5.57
  -3   1   4  218.01    5.26
  -3   1   4  208.19    4.65
   2  -1  -4  209.18    5.02
   2  -1  -4  215.25    4.96
   2  -1  -4  212.83    5.28
   2  -1  -4  212.39    4.63
   2  -1  -4  212.69    4.53
  -2   1   4  211.76    4.95
  -2   1   4  216.34    4.69
  -2   1   4  214.48    5.30
  -2   1   4  214.83    5.07
  -2   1   4  207.14    4.39
   1  -1  -4  153.88    3.85
   1  -1  -4  151.76    3.96
   1  -1  -4  151.68    4.21
   1  -1  -4  150.45    3.78
   1  -1  -4  154.34    3.71
  -1   1   4  146.40    3.90
  -1   1   4  151.15    3.73
  -1   1   4  153.92    3.84
  -1   1   4  155.94    3.03
  -1   1   4  151.13    4.17
   0  -1  -4   36.69    1.99
   0  -1  -4   36.14    1.68
   0  -1  -4   35.76    1.75
   0  -1  -4   36.35    1.65
   0  -1  -4   37.83    1.95
   0   1   4   36.28    0.90
   0   1   4   37.51    1.96
   0   1   4   36.74    1.67
   0   1   4   39.06    1.78
   0   1   4   36.64    1.99
   0   1   4   37.86    1.68
  -1  -1  -4    1.68    0.31
  -1  -1  -4    1.64    0.61
  -1  -1  -4    1.46    0.51
  -1  -1  -4    1.09    0.67
  -1  -1  -4    1.98    0.66
  -1  -1  -4    0.79    0.71
  -1  -1  -4    3.77    0.95
   1   1   4    1.04    0.57
   1   1   4    2.08    0.61
   1   1   4    2.01    0.55
   1   1   4    1.95    0.32
   1   1   4    1.63    0.76
  -2  -1  -4    9.47    0.73
  -2  -1  -4    9.30    1.52
  -2  -1  -4   10.11    0.93
  -2  -1  -4    8.87    0.86
  -2  -1  -4    9.52    0.97
  -2  -1  -4    9.85    0.63
   2   1   4    9.77    1.50
   2   1   4    9.65    0.93
   2   1   4    9.43    0.87
   2   1   4   12.18    1.87
   2   1   4   10.92    1.25
  -3  -1  -4   23.57    1.20
  -3  -1  -4   24.13    2.06
  -3  -1  -4   20.81    1.34
  -3  -1  -4   25.22    2.43
  -3  -1  -4   21.43    1.27
  -3  -1  -4   20.81    1.89
  -3  -1  -4   19.55    1.19
  -3  -1  -4   22.97    1.52
   3   1   4   22.47    1.24
   3   1   4   21.01    1.22
   3   1   4   19.35    1.20
  -4  -1  -4   66.56    2.58
  -4  -1  -4   61.39    2.14
  -4  -1  -4   63.66    2.57
  -4  -1  -4   61.30    2.70
  -4  -1  -4   71.79    3.88
  -4  -1  -4   66.02    2.46
   4   1   4   66.76    4.09
   4   1   4   63.58    3.72
   4   1   4   63.03    2.17
   4   1   4   55.39    2.42
   4   1   4   62.38    2.10
  -5  -1  -4    0.27    0.69
  -5  -1  -4    2.01    0.77
  -5  -1  -4    0.75    0.64
  -5  -1  -4    1.27    0.43
  -5  -1  -4    3.02    1.40
  -5  -1  -4    2.09    0.65
   5   1   4    0.13    0.99
   5   1   4    1.36    0.92
   5   1   4    1.73    0.80
   5   1   4    1.93    0.54
  -6  -1  -4    0.40    0.71
  -6  -1  -4    1.78    0.75
  -6  -1  -4   -0.50    0.55
  -6  -1  -4    0.84    0.66
   6   1   4    0.26    0.69
   6   1   4    0.52    1.06
   6   1   4    0.28    0.75
  -7  -1  -4    1.02    0.85
  -7  -1  -4    0.08    0.71
  -7  -1  -4    1.33    0.86
  -7  -1  -4    0.31    1.26
   7   1   4   -0.35    0.73
   7   1   4    2.34    1.33
  -8  -1  -4   28.80    2.91
  -8  -1  -4   27.20    2.37
  -8  -1  -4   26.83    3.85
   8   1   4   34.67    3.74
   8   1   4   19.21    3.42
   9  -2  -4    1.95    1.55
   9  -2  -4    2.92    1.33
   9  -2  -4    0.26    0.88
  -9   2   4   -0.16    0.77
  -9   2   4   -0.22    0.98
   8  -2  -4   17.09    2.88
   8  -2  -4   17.65    2.39
   8  -2  -4   15.85    2.81
  -8   2   4   12.06    2.17
   7  -2  -4    2.94    1.38
   7  -2  -4    0.52    0.84
   7  -2  -4    1.93    0.88
   7  -2  -4    3.66    0.74
  -7   2   4    2.85    1.08
  -7   2   4    2.72    1.15
  -7   2   4    1.93    0.91
   6  -2  -4    3.11    1.13
   6  -2  -4    4.04    1.34
   6  -2  -4    3.95    0.76
   6  -2  -4    3.23    1.35
  -6   2   4    2.14    0.99
  -6   2   4    1.27    0.91
  -6   2   4    2.68    1.07
   5  -2  -4   -0.30    0.65
   5  -2  -4   -0.07    0.52
   5  -2  -4   -0.05    0.31
  -5   2   4   -0.55    0.53
  -5   2   4   -0.12    0.57
  -5   2   4    0.04    0.41
   4  -2  -4    1.57    0.54
   4  -2  -4    1.33    0.75
   4  -2  -4    2.05    0.73
   4  -2  -4    2.30    0.75
   4  -2  -4    2.21    0.83
  -4   2   4    1.61    0.64
  -4   2   4    0.97    0.61
  -4   2   4    1.25    0.55
  -4   2   4    1.30    0.71
   3  -2  -4   47.56    2.03
   3  -2  -4   50.13    2.11
   3  -2  -4   52.81    2.48
   3  -2  -4   49.81    2.53
   3  -2  -4   45.23    2.22
   3  -2  -4   43.95    2.33
  -3   2   4   44.71    2.26
  -3   2   4   48.15    2.44
  -3   2   4   48.84    2.07
  -3   2   4   46.58    2.45
   2  -2  -4   35.37    1.47
   2  -2  -4   33.04    1.69
   2  -2  -4   35.13    1.97
   2  -2  -4   35.95    2.09
   2  -2  -4   33.51    1.87
  -2   2   4   36.52    2.89
  -2   2   4   31.88    2.03
  -2   2   4   31.19    1.79
   1  -2  -4    0.02    0.39
   1  -2  -4   -0.05    0.48
   1  -2  -4    0.08    0.36
   1  -2  -4    1.10    0.60
   1  -2  -4    0.23    0.50
  -1   2   4    0.03    0.22
  -1   2   4    0.61    0.61
  -1   2   4    0.09    0.47
   0  -2  -4   14.01    1.22
   0  -2  -4   13.19    1.11
   0  -2  -4   13.44    1.12
   0  -2  -4   14.47    1.43
   0  -2  -4   14.50    1.48
   0   2   4   15.65    1.47
   0   2   4   13.95    1.08
   0   2   4   13.25    1.15
   0   2   4   12.85    1.13
   0   2   4   15.16    1.50
  -1  -2  -4   30.60    1.64
  -1  -2  -4   31.81    1.65
  -1  -2  -4   31.43    2.24
  -1  -2  -4   29.08    2.00
  -1  -2  -4   30.07    2.09
  -1  -2  -4   32.03    1.58
   1   2   4   33.44    2.07
   1   2   4   30.95    2.16
   1   2   4   33.42    1.80
   1   2   4   33.98    1.19
   1   2   4   33.04    1.57
  -2  -2  -4   15.97    2.01
  -2  -2  -4   15.40    1.63
  -2  -2  -4   14.00    1.11
  -2  -2  -4   12.26    0.95
  -2  -2  -4   12.13    1.08
  -2  -2  -4   13.72    1.05
  -2  -2  -4   13.01    1.80
   2   2   4   12.41    1.90
   2   2   4   11.82    1.14
  -3  -2  -4    3.69    0.71
  -3  -2  -4    2.72    0.60
  -3  -2  -4    3.44    0.72
  -3  -2  -4    3.22    0.60
  -3  -2  -4    2.25    0.68
  -3  -2  -4    4.43    1.22
   3   2   4    2.50    0.66
   3   2   4    1.92    0.85
   3   2   4    2.58    0.49
   3   2   4    2.90    0.54
   3   2   4    4.44    1.26
  -4  -2  -4   42.80    2.10
  -4  -2  -4   48.62    2.14
  -4  -2  -4   46.80    3.28
  -4  -2  -4   43.13    1.96
  -4  -2  -4   44.75    2.03
  -4  -2  -4   46.35    2.17
   4   2   4   42.48    1.19
   4   2   4   43.87    3.26
   4   2   4   45.63    2.10
   4   2   4   42.47    3.42
   4   2   4   41.72    1.17
  -5  -2  -4   37.55    2.23
  -5  -2  -4   38.37    2.13
  -5  -2  -4   39.95    2.20
  -5  -2  -4   38.96    3.18
  -5  -2  -4   37.18    1.79
   5   2   4   35.24    3.19
   5   2   4   37.40    3.50
  -6  -2  -4    1.29    0.79
  -6  -2  -4    1.04    0.48
  -6  -2  -4    0.92    0.59
  -6  -2  -4    1.30    1.11
  -6  -2  -4    0.88    0.48
  -6  -2  -4   -0.57    0.53
   6   2   4    1.77    1.20
   6   2   4   -0.52    0.77
  -7  -2  -4    1.41    0.74
  -7  -2  -4    0.08    0.68
  -7  -2  -4    0.92    1.36
  -7  -2  -4    2.34    1.09
   7   2   4   -0.08    0.89
   7   2   4   -0.61    0.74
   9  -3  -4    0.91    1.04
   9  -3  -4    2.65    1.23
   9  -3  -4    2.11    1.45
  -9   3   4   -0.08    0.92
  -9   3   4    0.10    0.99
   8  -3  -4    7.51    1.92
   8  -3  -4    7.06    1.56
   8  -3  -4    5.09    1.28
   8  -3  -4    3.64    0.83
   8  -3  -4    6.95    1.90
  -8   3   4    5.18    1.83
  -8   3   4    6.97    1.80
   7  -3  -4    0.20    1.11
   7  -3  -4    2.80    1.16
   7  -3  -4    0.27    0.54
   7  -3  -4    1.85    1.23
  -7   3   4    3.13    1.24
  -7   3   4   -0.58    0.81
  -7   3   4    1.62    0.88
   6  -3  -4   -0.27    0.80
   6  -3  -4   -0.45    0.42
   6  -3  -4    0.28    0.91
   6  -3  -4   -0.72    0.55
  -6   3   4    0.61    0.79
  -6   3   4   -0.07    0.68
  -6   3   4   -0.04    0.57
   5  -3  -4    9.64    1.52
   5  -3  -4   10.03    1.21
   5  -3  -4   10.40    1.68
  -5   3   4    7.26    1.51
  -5   3   4    8.50    1.60
   4  -3  -4    9.42    1.21
   4  -3  -4    9.22    1.51
   4  -3  -4    9.25    1.63
   4  -3  -4    6.41    1.28
   4  -3  -4    7.85    1.22
   4  -3  -4    9.25    1.37
  -4   3   4    9.11    1.48
  -4   3   4    7.04    1.27
  -4   3   4   10.14    1.63
  -4   3   4   10.25    1.42
   3  -3  -4    0.92    0.61
   3  -3  -4    1.12    0.58
   3  -3  -4    1.32    0.52
   3  -3  -4    1.59    0.62
   3  -3  -4    1.03    0.61
   3  -3  -4    1.40    0.64
  -3   3   4    1.18    0.46
  -3   3   4    1.20    0.71
  -3   3   4    1.19    0.66
   2  -3  -4   52.40    2.66
   2  -3  -4   52.07    2.47
   2  -3  -4   50.68    2.58
   2  -3  -4   54.01    2.39
   2  -3  -4   49.81    1.77
   2  -3  -4   47.94    2.18
  -2   3   4   50.22    2.40
  -2   3   4   49.86    1.95
  -2   3   4   46.00    2.38
  -2   3   4   53.40    2.64
   1  -3  -4   18.87    1.41
   1  -3  -4   19.27    1.46
   1  -3  -4   20.30    1.61
   1  -3  -4   19.01    0.80
   1  -3  -4   20.74    1.41
   1  -3  -4   19.42    1.62
  -1   3   4   19.06    1.54
  -1   3   4   19.34    0.83
  -1   3   4   16.13    1.28
  -1   3   4   19.87    1.44
  -1   3   4   20.88    1.61
   0  -3  -4   74.08    3.18
   0  -3  -4   76.54    3.25
   0  -3  -4   74.84    2.62
   0  -3  -4   69.56    2.62
   0   3   4   73.60    2.71
   0   3   4   72.00    2.95
   0   3   4   72.76    3.05
   0   3   4   66.33    3.23
  -1  -3  -4    0.12    0.42
  -1  -3  -4    0.99    0.71
  -1  -3  -4    0.90    0.84
  -1  -3  -4    0.05    0.65
  -1  -3  -4    1.38    0.51
   1   3   4    0.25    0.30
   1   3   4   -0.19    0.41
   1   3   4    0.90    0.43
   1   3   4    0.33    0.49
  -2  -3  -4   12.28    1.90
  -2  -3  -4    9.91    1.20
  -2  -3  -4   10.43    1.48
  -2  -3  -4   10.50    0.60
  -2  -3  -4    8.79    0.91
  -2  -3  -4   12.27    0.97
  -2  -3  -4   11.18    1.37
   2   3   4   14.41    1.72
   2   3   4   10.48    0.70
   2   3   4    9.54    0.72
   2   3   4   10.92    0.92
  -3  -3  -4   12.60    1.20
  -3  -3  -4   11.26    1.31
  -3  -3  -4   10.75    1.35
  -3  -3  -4   12.14    1.97
  -3  -3  -4   11.45    1.52
  -3  -3  -4   10.45    1.05
  -3  -3  -4   13.95    0.97
   3   3   4   11.35    1.96
   3   3   4   10.53    1.47
  -4  -3  -4   -0.48    0.49
  -4  -3  -4    0.13    0.92
  -4  -3  -4    0.71    0.52
  -4  -3  -4    1.35    0.64
  -4  -3  -4    0.49    0.50
  -4  -3  -4    0.11    0.47
  -4  -3  -4    1.51    0.72
   4   3   4    0.05    0.89
   4   3   4   -0.24    0.89
   4   3   4   -0.33    0.53
  -5  -3  -4    3.75    1.07
  -5  -3  -4    5.66    1.01
  -5  -3  -4    4.08    0.93
  -5  -3  -4    3.13    1.34
  -5  -3  -4    4.19    0.80
  -5  -3  -4    3.88    1.04
   5   3   4    5.38    1.84
   5   3   4    4.46    1.59
   5   3   4    2.72    0.85
  -6  -3  -4    9.05    2.27
  -6  -3  -4    7.18    1.05
  -6  -3  -4    8.29    1.35
  -6  -3  -4    8.94    1.20
  -6  -3  -4    8.39    1.15
   6   3   4    5.54    1.90
   6   3   4    9.13    2.54
  -7  -3  -4    1.00    1.37
  -7  -3  -4   -0.01    0.90
  -7  -3  -4    0.70    0.61
  -7  -3  -4    0.25    0.57
   7   3   4   -1.37    1.22
   7   3   4    1.04    1.47
   9  -4  -4   -1.16    1.13
   9  -4  -4    1.77    1.10
   9  -4  -4    1.73    1.21
  -9   4   4    2.10    1.02
  -9   4   4    1.49    1.04
   8  -4  -4    1.82    1.19
   8  -4  -4   -0.80    0.71
   8  -4  -4    2.15    1.25
   8  -4  -4   -0.67    0.76
  -8   4   4   -0.21    0.84
  -8   4   4   -0.08    0.77
   7  -4  -4   -0.20    0.84
   7  -4  -4    0.78    0.67
   7  -4  -4    2.55    0.92
   7  -4  -4    1.84    0.89
  -7   4   4    0.34    0.84
  -7   4   4    2.13    1.13
   6  -4  -4   57.22    3.31
   6  -4  -4   55.09    3.15
   6  -4  -4   55.36    2.49
  -6   4   4   50.11    3.00
  -6   4   4   56.85    3.50
   5  -4  -4   51.40    3.05
   5  -4  -4   53.22    2.83
   5  -4  -4   41.44    2.18
  -5   4   4   48.94    2.87
  -5   4   4   42.36    2.90
  -5   4   4   49.23    2.74
   4  -4  -4    2.21    0.76
   4  -4  -4    3.40    0.81
   4  -4  -4    2.50    0.95
   4  -4  -4    1.67    0.88
   4  -4  -4    2.84    1.07
  -4   4   4    2.33    0.87
  -4   4   4    2.65    0.79
  -4   4   4    2.53    0.95
  -4   4   4    3.22    0.92
   3  -4  -4   -0.09    0.50
   3  -4  -4   -0.54    0.52
   3  -4  -4    0.14    0.42
   3  -4  -4    0.94    0.59
   3  -4  -4   -1.03    0.36
  -3   4   4    0.39    0.62
  -3   4   4    0.71    0.63
  -3   4   4    0.36    0.39
  -3   4   4    0.22    0.63
  -3   4   4   -0.38    0.53
   2  -4  -4    8.18    1.25
   2  -4  -4    8.74    1.33
   2  -4  -4    9.55    1.34
   2  -4  -4    7.76    1.36
   2  -4  -4   12.06    1.71
   2  -4  -4    7.46    0.73
  -2   4   4    7.54    1.21
  -2   4   4    7.27    1.20
  -2   4   4    8.09    0.94
  -2   4   4    7.84    1.32
  -2   4   4   11.44    1.66
   1  -4  -4    3.58    0.99
   1  -4  -4    3.13    0.47
   1  -4  -4    1.80    0.78
   1  -4  -4    2.48    0.63
   1  -4  -4    4.30    0.91
   1  -4  -4    3.23    0.75
  -1   4   4    3.80    1.06
  -1   4   4    4.35    0.90
  -1   4   4    4.01    0.91
  -1   4   4    4.05    0.99
  -1   4   4    3.03    0.78
   0  -4  -4   29.12    1.85
   0  -4  -4   27.00    2.04
   0  -4  -4   26.15    1.84
   0  -4  -4   31.31    1.71
   0  -4  -4   29.02    0.61
   0  -4  -4   32.31    2.44
   0   4   4   30.16    2.37
   0   4   4   29.43    1.66
   0   4   4   27.80    1.69
   0   4   4   28.34    2.08
  -1  -4  -4   77.97    3.57
  -1  -4  -4   69.46    2.60
  -1  -4  -4   66.79    3.34
  -1  -4  -4   66.18    3.07
  -1  -4  -4   69.41    2.52
   1   4   4   69.40    2.18
   1   4   4   71.78    2.30
   1   4   4   75.90    3.34
   1   4   4   72.27    3.84
   1   4   4   72.61    2.63
   1   4   4   71.82    3.29
  -2  -4  -4   13.76    0.78
  -2  -4  -4   14.58    1.30
  -2  -4  -4   15.88    1.23
  -2  -4  -4   14.80    1.95
  -2  -4  -4   15.77    0.77
  -2  -4  -4   14.06    1.10
  -2  -4  -4   15.59    2.13
   2   4   4   13.87    0.54
   2   4   4   13.21    2.21
   2   4   4   14.63    1.21
  -3  -4  -4    3.79    0.73
  -3  -4  -4    3.81    1.29
  -3  -4  -4    4.25    0.92
  -3  -4  -4    4.51    0.96
  -3  -4  -4    3.62    0.73
   3   4   4    2.97    1.37
   3   4   4    6.61    1.35
  -4  -4  -4   20.91    1.26
  -4  -4  -4   28.56    2.72
  -4  -4  -4   20.86    1.40
  -4  -4  -4   22.86    1.84
  -4  -4  -4   23.62    1.37
   4   4   4   24.96    3.34
   4   4   4   23.29    1.95
  -5  -4  -4    1.13    1.08
  -5  -4  -4    1.03    0.70
  -5  -4  -4    0.34    0.37
   5   4   4    1.16    0.72
  -6  -4  -4    0.94    0.70
  -6  -4  -4    0.65    1.17
  -6  -4  -4    1.48    0.52
   6   4   4    3.78    1.45
   9  -5  -4    2.01    1.26
   9  -5  -4    2.06    1.69
   9  -5  -4    0.02    1.35
  -9   5   4    4.54    1.73
  -9   5   4    1.21    1.00
  -9   5   4    2.80    1.30
   8  -5  -4    6.50    1.80
   8  -5  -4    6.54    1.96
  -8   5   4    3.67    1.59
  -8   5   4    4.93    1.46
  -8   5   4    2.52    1.34
   7  -5  -4    3.25    1.42
   7  -5  -4    3.12    1.47
   7  -5  -4    2.54    1.26
  -7   5   4    3.46    1.50
  -7   5   4    6.04    1.61
  -7   5   4    3.63    1.23
   6  -5  -4   19.19    2.63
   6  -5  -4   21.75    2.02
  -6   5   4   20.03    2.01
  -6   5   4   19.79    2.40
  -6   5   4   18.71    2.63
   5  -5  -4    4.64    1.28
   5  -5  -4    4.73    1.02
  -5   5   4    4.52    1.34
  -5   5   4    4.52    1.20
  -5   5   4    5.15    1.39
   4  -5  -4    4.29    1.00
   4  -5  -4    5.29    1.03
   4  -5  -4    3.19    0.98
  -4   5   4    4.68    1.30
  -4   5   4    3.20    0.94
  -4   5   4    4.83    1.40
   3  -5  -4   36.14    2.38
   3  -5  -4   32.08    2.24
   3  -5  -4   33.71    2.32
   3  -5  -4   28.15    1.69
   3  -5  -4   31.10    1.86
  -3   5   4   28.86    2.17
  -3   5   4   30.02    2.23
  -3   5   4   29.48    2.31
  -3   5   4   29.73    1.84
   2  -5  -4   10.61    1.62
   2  -5  -4   13.46    1.72
   2  -5  -4   11.17    1.54
   2  -5  -4   11.51    0.96
  -2   5   4   14.42    1.75
  -2   5   4   13.65    1.76
  -2   5   4   12.72    1.79
  -2   5   4   15.58    1.97
  -2   5   4   12.45    1.08
   1  -5  -4   14.52    1.84
   1  -5  -4   14.94    1.30
   1  -5  -4   15.81    0.89
   1  -5  -4   13.95    1.37
  -1   5   4   13.25    1.27
  -1   5   4   15.19    1.60
  -1   5   4   17.93    1.76
  -1   5   4   14.32    1.43
   0  -5  -4    1.16    0.60
   0  -5  -4    0.90    0.53
   0  -5  -4    2.14    0.99
   0   5   4    1.27    0.58
   0   5   4    1.74    0.97
   0   5   4    0.90    0.75
   0   5   4    1.17    0.71
  -1  -5  -4   61.16    2.54
  -1  -5  -4   63.94    2.51
  -1  -5  -4   60.92    3.29
  -1  -5  -4   61.41    1.32
   1   5   4   60.48    2.73
   1   5   4   60.88    1.96
   1   5   4   58.27    3.11
   1   5   4   64.24    3.38
  -2  -5  -4   18.18    1.29
  -2  -5  -4   17.99    1.34
  -2  -5  -4   17.44    0.86
  -2  -5  -4   20.58    2.53
   2   5   4   19.42    1.97
   2   5   4   21.68    2.84
   2   5   4   19.87    1.61
  -3  -5  -4    2.03    0.51
  -3  -5  -4    2.66    1.36
  -3  -5  -4   -0.26    0.80
  -3  -5  -4    2.85    0.68
   3   5   4    3.32    0.83
   3   5   4    1.01    0.89
   3   5   4    1.41    0.94
  -4  -5  -4    4.99    0.72
  -4  -5  -4    7.27    1.87
  -4  -5  -4    3.58    0.74
  -4  -5  -4    3.88    0.67
   4   5   4    2.80    1.49
   4   5   4    5.63    1.29
  -5  -5  -4    0.04    0.30
  -5  -5  -4    0.51    1.31
  -5  -5  -4   -1.08    0.54
   5   5   4   -0.22    0.72
   5   5   4    0.14    1.02
  -6  -5  -4    2.43    1.35
  -6  -5  -4    1.76    0.95
  -6  -5  -4    1.55    0.99
   6   5   4    5.00    1.79
   9  -6  -4   -2.16    1.13
   9  -6  -4    0.50    1.38
  -9   6   4   -0.71    1.31
  -9   6   4   -1.29    1.10
   8  -6  -4   10.04    2.49
   8  -6  -4    5.22    1.76
  -8   6   4    7.16    1.64
  -8   6   4   11.21    2.20
  -8   6   4    6.50    1.92
   7  -6  -4    1.48    1.10
   7  -6  -4    2.09    1.10
  -7   6   4    2.54    1.26
  -7   6   4    0.13    1.03
  -7   6   4   -0.12    0.87
   6  -6  -4   20.74    2.81
   6  -6  -4   23.62    2.04
  -6   6   4   27.04    2.36
  -6   6   4   23.51    2.23
  -6   6   4   20.90    2.72
   5  -6  -4   20.44    2.63
   5  -6  -4   17.41    1.80
  -5   6   4   22.61    2.24
  -5   6   4   20.28    1.95
  -5   6   4   22.71    2.86
   4  -6  -4   23.97    2.21
   4  -6  -4   22.28    2.12
   4  -6  -4   23.92    2.18
  -4   6   4   21.24    2.10
  -4   6   4   21.64    2.68
  -4   6   4   16.84    2.24
   3  -6  -4    4.68    1.23
   3  -6  -4    5.95    1.04
   3  -6  -4    5.32    1.22
   3  -6  -4    4.22    1.28
  -3   6   4    5.24    1.41
  -3   6   4    5.19    1.04
  -3   6   4    4.88    1.25
   2  -6  -4    3.14    0.69
   2  -6  -4    3.51    0.97
   2  -6  -4    3.81    1.00
   2  -6  -4    2.78    1.03
  -2   6   4    2.58    1.07
  -2   6   4    1.18    0.61
  -2   6   4    3.59    1.06
  -2   6   4    2.25    1.03
   1  -6  -4    5.94    1.43
   1  -6  -4    4.95    1.17
   1  -6  -4    4.17    0.66
   1  -6  -4    4.28    0.99
  -1   6   4    4.55    1.14
  -1   6   4    4.11    1.24
   0  -6  -4    0.54    0.47
   0  -6  -4    0.65    0.49
   0  -6  -4    0.55    0.75
   0   6   4    0.24    0.73
   0   6   4    0.23    0.66
   0   6   4   -0.47    0.79
   0   6   4    0.23    0.50
  -1  -6  -4   18.49    1.44
  -1  -6  -4   16.50    0.79
  -1  -6  -4   18.96    1.51
   1   6   4   18.21    1.02
   1   6   4   19.81    1.78
   1   6   4   18.79    2.52
  -2  -6  -4    8.33    1.08
  -2  -6  -4    6.83    1.57
   2   6   4    4.09    1.05
   2   6   4    7.98    1.63
  -3  -6  -4    6.51    0.80
  -3  -6  -4    7.96    0.93
  -3  -6  -4    6.31    1.69
  -3  -6  -4    7.55    0.93
   3   6   4    9.09    1.81
   3   6   4    8.47    1.41
  -4  -6  -4   -0.59    0.64
  -4  -6  -4    0.77    0.53
  -4  -6  -4    0.26    0.33
  -4  -6  -4    1.80    1.18
   4   6   4    0.68    0.97
   4   6   4   -1.64    0.92
  -5  -6  -4    2.52    0.78
  -5  -6  -4    4.40    1.63
   5   6   4    3.03    1.13
   5   6   4    3.90    1.53
   8  -7  -4   -0.21    1.28
   8  -7  -4    0.57    1.06
   8  -7  -4    0.02    0.93
  -8   7   4   -1.32    0.98
  -8   7   4    2.96    1.55
   7  -7  -4    0.83    1.07
   7  -7  -4   -1.74    0.80
  -7   7   4    1.32    1.16
  -7   7   4   -0.02    0.79
  -7   7   4   -0.82    0.90
   6  -7  -4    9.37    2.00
   6  -7  -4    7.37    1.41
  -6   7   4    6.58    1.62
  -6   7   4    9.99    1.86
  -6   7   4    8.74    2.05
   5  -7  -4    4.98    1.54
  -5   7   4    3.66    1.25
  -5   7   4    4.97    1.34
  -5   7   4    3.83    1.46
   4  -7  -4   32.70    2.65
   4  -7  -4   30.98    2.63
   4  -7  -4   29.55    1.57
   4  -7  -4   28.29    2.47
  -4   7   4   33.88    2.66
  -4   7   4   31.75    2.74
  -4   7   4   30.29    2.20
   3  -7  -4   38.64    2.18
   3  -7  -4   39.18    1.82
   3  -7  -4   42.12    2.87
   3  -7  -4   40.84    2.70
   3  -7  -4   39.39    2.76
  -3   7   4   42.49    2.37
  -3   7   4   39.59    2.91
  -3   7   4   42.65    3.18
  -3   7   4   44.45    2.88
   2  -7  -4    5.11    0.94
   2  -7  -4    7.43    1.47
   2  -7  -4    5.16    1.19
   2  -7  -4    3.76    0.94
   2  -7  -4    3.37    1.06
  -2   7   4    6.40    1.53
  -2   7   4    6.74    1.68
  -2   7   4    5.91    1.38
  -2   7   4    4.92    0.96
   1  -7  -4    6.42    1.28
   1  -7  -4    8.23    1.48
   1  -7  -4    5.76    0.91
   1  -7  -4    8.31    1.59
  -1   7   4    6.27    1.46
  -1   7   4    6.01    1.46
   0  -7  -4   20.91    1.76
   0  -7  -4   19.97    1.76
   0  -7  -4   19.22    1.07
   0   7   4   21.67    2.04
   0   7   4   21.12    2.22
  -1  -7  -4   53.94    2.58
  -1  -7  -4   57.37    2.68
  -1  -7  -4   59.15    3.37
   1   7   4   53.74    3.13
   1   7   4   55.23    4.36
  -2  -7  -4   12.48    1.21
  -2  -7  -4   14.52    1.29
  -2  -7  -4   12.73    2.06
   2   7   4   13.92    2.31
   2   7   4   12.94    1.89
  -3  -7  -4    5.92    0.70
  -3  -7  -4    7.67    0.90
  -3  -7  -4    5.71    0.84
  -3  -7  -4    6.04    1.74
   3   7   4    3.44    1.46
   3   7   4    6.98    1.51
  -4  -7  -4   12.97    1.05
  -4  -7  -4   12.39    2.48
   4   7   4    8.66    1.92
   7  -8  -4   -1.17    0.86
  -7   8   4   -0.39    0.85
  -7   8   4   -0.54    0.87
  -7   8   4    0.85    1.32
   6  -8  -4    0.71    1.28
  -6   8   4   -0.85    0.79
  -6   8   4   -0.01    0.90
  -6   8   4    0.18    1.33
   5  -8  -4   -0.27    0.43
  -5   8   4    0.76    0.88
  -5   8   4    0.74    1.08
   4  -8  -4    6.12    0.66
   4  -8  -4    6.37    1.48
   4  -8  -4    6.25    1.69
   4  -8  -4    7.80    0.64
  -4   8   4    8.05    1.78
  -4   8   4   10.18    2.09
  -4   8   4    8.25    1.81
  -4   8   4    9.41    1.57
   3  -8  -4    1.72    0.95
   3  -8  -4    2.08    0.94
   3  -8  -4   -0.06    0.46
   3  -8  -4    1.12    0.44
   3  -8  -4    1.32    0.96
  -3   8   4   -0.43    0.92
  -3   8   4    0.82    0.80
  -3   8   4    2.71    1.03
  -3   8   4   -0.17    0.91
   2  -8  -4   -0.08    0.81
   2  -8  -4    0.51    0.72
   2  -8  -4    0.16    0.75
   2  -8  -4    0.10    0.73
  -2   8   4    1.19    0.82
  -2   8   4    0.36    0.86
  -2   8   4    0.26    1.07
   1  -8  -4    2.77    1.17
   1  -8  -4    2.15    1.01
   1  -8  -4   -0.35    0.60
   1  -8  -4    0.80    0.61
  -1   8   4   -0.02    0.87
  -1   8   4    1.18    0.94
   0  -8  -4    1.15    0.91
   0  -8  -4   -0.22    0.69
   0   8   4    0.08    0.90
   0   8   4    0.61    1.19
   0   8   4   -0.97    0.62
  -1  -8  -4    0.63    0.74
  -1  -8  -4    0.01    0.82
  -1  -8  -4   -0.33    0.63
   1   8   4    0.21    0.84
   1   8   4    1.18    1.34
  -2  -8  -4    1.08    0.40
  -2  -8  -4    2.02    1.22
  -2  -8  -4    2.08    0.64
  -2  -8  -4    1.17    0.63
   2   8   4    1.63    1.12
   2   8   4   -0.06    0.97
  -3  -8  -4   -0.18    0.38
  -3  -8  -4    0.71    1.19
   3   8   4    0.38    0.98
   3   8   4    0.03    1.05
   6  -9  -4    1.74    1.39
  -6   9   4   -0.59    1.35
  -6   9   4   -0.30    1.00
  -6   9   4    1.24    1.15
  -6   9   4    0.66    1.22
   5  -9  -4    0.34    0.89
  -5   9   4    0.22    1.38
  -5   9   4    0.21    1.00
  -5   9   4   -0.60    0.80
  -5   9   4    0.85    1.16
   4  -9  -4   11.62    2.13
  -4   9   4   12.23    2.20
  -4   9   4    9.04    1.90
  -4   9   4   13.29    2.40
  -4   9   4   14.92    2.53
   3  -9  -4    4.31    1.77
   3  -9  -4    4.27    1.31
   3  -9  -4    3.90    1.43
  -3   9   4    2.31    1.36
  -3   9   4    3.85    1.48
  -3   9   4    3.67    1.75
   2  -9  -4    1.18    0.92
   2  -9  -4   -0.30    0.78
   2  -9  -4   -0.52    0.83
   2  -9  -4   -0.34    0.89
  -2   9   4   -0.39    0.80
  -2   9   4    2.80    1.20
   1  -9  -4    1.08    0.91
   1  -9  -4    0.97    0.77
   1  -9  -4    3.91    1.13
   1  -9  -4    1.46    1.02
  -1   9   4    0.77    0.94
  -1   9   4    1.91    0.98
  -1   9   4   -0.30    1.09
   0  -9  -4    8.48    1.68
   0  -9  -4    7.63    1.38
   0  -9  -4    8.50    1.58
   0   9   4   11.21    1.92
   0   9   4    5.18    1.76
  -1  -9  -4    5.44    1.51
  -1  -9  -4    7.42    1.36
   1   9   4    3.91    1.49
   1   9   4    8.57    2.02
  -2  -9  -4    3.42    0.98
  -2  -9  -4    2.65    0.79
  -2  -9  -4    2.63    1.27
   2   9   4    1.22    1.18
   2   9   4    3.69    1.49
   5 -10  -4    0.39    1.30
  -5  10   4    0.36    1.04
  -5  10   4    1.39    1.41
  -5  10   4    0.99    1.40
   4 -10  -4    0.67    1.02
  -4  10   4   -2.14    1.59
  -4  10   4    0.83    1.28
  -4  10   4   -0.17    1.16
  -4  10   4    1.01    1.46
   3 -10  -4   -1.28    1.01
   3 -10  -4    0.57    1.15
  -3  10   4    1.85    1.41
  -3  10   4    2.09    1.26
   2 -10  -4    1.08    1.10
   2 -10  -4    0.72    0.96
  -2  10   4   -1.24    0.96
  -2  10   4   -0.50    0.98
   1 -10  -4    0.11    1.11
   1 -10  -4   -0.48    0.83
  -1  10   4   -0.96    0.97
  -1  10   4   -1.28    0.67
   0 -10  -4    1.67    1.08
   0 -10  -4    0.03    0.83
   0  10   4   -0.25    1.19
   0  10   4    0.75    1.19
   2  11  -5    0.02    1.32
   2  11  -5   -2.43    1.32
  -2 -11   5   -0.15    0.74
  -2 -11   5    2.68    1.35
   1  11  -5    2.26    1.52
  -1 -11   5    4.65    1.68
  -1 -11   5    1.92    1.08
   0  11  -5    1.62    1.45
   0 -11   5    5.85    1.75
   0 -11   5    4.07    1.14
  -1  11  -5    4.91    1.78
  -1  11  -5    1.36    0.94
   1 -11   5    3.56    1.24
   1 -11   5    2.90    1.50
  -2  11  -5   -1.53    0.85
  -2  11  -5   -1.27    0.96
  -2  11  -5   -0.76    1.40
   2 -11   5    0.46    0.70
   2 -11   5    0.30    0.99
   2 -11   5   -0.87    1.13
  -3  11  -5    5.28    1.98
  -3  11  -5    2.78    1.52
  -3  11  -5    2.62    1.34
   3 -11   5    1.67    1.23
   3 -11   5    2.56    1.44
   3 -11   5    2.85    1.03
  -4  11  -5    7.12    2.11
  -4  11  -5    1.43    1.20
  -4  11  -5    2.52    2.02
   4 -11   5    4.56    1.25
   4 -11   5    2.52    1.41
   4 -11   5    1.95    1.18
   3  10  -5    1.29    0.92
   3  10  -5   -2.18    1.26
  -3 -10   5    0.23    1.21
  -3 -10   5   -1.08    0.72
  -3 -10   5    0.88    0.75
   2  10  -5    0.09    0.88
   2  10  -5   -0.54    0.93
  -2 -10   5    0.71    0.79
  -2 -10   5    0.44    0.95
  -2 -10   5    3.26    1.35
   1  10  -5   -2.54    0.97
   1  10  -5    0.24    0.82
   1  10  -5   -0.15    0.76
  -1 -10   5    0.61    1.02
  -1 -10   5   -0.17    0.67
  -1 -10   5   -0.29    0.79
   0  10  -5    1.19    1.04
   0  10  -5   -0.15    1.01
   0 -10   5    1.79    1.12
   0 -10   5    0.45    1.17
   0 -10   5    0.41    0.38
   0 -10   5    1.49    0.96
  -1  10  -5    5.11    1.49
  -1  10  -5    6.75    1.80
  -1  10  -5    3.41    1.35
   1 -10   5    4.76    1.63
   1 -10   5    2.52    0.79
   1 -10   5    4.75    1.33
   1 -10   5    4.43    1.42
  -2  10  -5    2.55    1.27
  -2  10  -5    2.32    1.39
   2 -10   5    3.00    1.49
   2 -10   5    2.41    0.76
   2 -10   5    3.87    1.52
   2 -10   5   -0.12    1.15
  -3  10  -5   -0.66    0.85
  -3  10  -5   -0.94    1.15
  -3  10  -5    1.01    0.95
   3 -10   5    2.54    1.30
   3 -10   5    1.69    0.86
   3 -10   5   -0.80    1.01
  -4  10  -5    8.00    1.00
  -4  10  -5    8.89    2.19
  -4  10  -5   12.45    2.05
  -4  10  -5   14.03    2.57
  -4  10  -5   13.24    2.60
   4 -10   5    8.61    1.91
   4 -10   5   10.19    1.70
   4 -10   5   12.07    2.06
  -5  10  -5    0.13    0.88
  -5  10  -5   -0.05    1.15
  -5  10  -5   -0.20    1.24
   5 -10   5    0.92    1.12
   5 -10   5   -0.99    0.84
   5 -10   5   -2.01    0.70
   5   9  -5    0.23    1.34
   5   9  -5   -0.40    1.05
  -5  -9   5    0.69    0.52
  -5  -9   5    0.77    0.50
  -5  -9   5    0.19    1.19
   4   9  -5    1.82    1.06
   4   9  -5    1.78    1.34
  -4  -9   5    0.22    1.00
  -4  -9   5    1.12    1.21
  -4  -9   5    1.74    0.71
   3   9  -5   -0.49    1.03
   3   9  -5   -0.45    1.01
  -3  -9   5    1.70    0.79
  -3  -9   5   -0.56    0.67
  -3  -9   5   -0.68    0.56
  -3  -9   5   -2.44    0.71
   2   9  -5   -0.60    0.93
   2   9  -5   -0.44    0.62
  -2  -9   5    1.09    0.79
  -2  -9   5   -1.23    0.97
   1   9  -5   -0.67    0.80
   1   9  -5    0.52    1.07
  -1  -9   5    0.98    1.01
  -1  -9   5    1.38    0.75
  -1  -9   5    0.71    0.70
   0   9  -5    2.71    1.15
   0   9  -5    4.88    0.87
   0  -9   5    5.49    0.45
   0  -9   5    4.18    1.03
   0  -9   5    4.52    1.23
   0  -9   5    6.86    1.52
  -1   9  -5   42.80    3.09
  -1   9  -5   39.30    2.81
  -1   9  -5   40.37    3.20
   1  -9   5   46.98    3.10
   1  -9   5   41.01    2.97
   1  -9   5   39.22    1.80
   1  -9   5   39.15    3.09
  -2   9  -5   38.38    3.24
  -2   9  -5   36.04    2.93
  -2   9  -5   33.51    2.71
   2  -9   5   36.64    3.03
   2  -9   5   33.85    2.77
   2  -9   5   36.15    2.94
   2  -9   5   33.80    1.85
  -3   9  -5   -0.49    0.70
  -3   9  -5   -0.34    1.07
  -3   9  -5    1.05    0.60
  -3   9  -5    0.45    0.84
  -3   9  -5    0.45    1.10
   3  -9   5   -0.23    0.81
   3  -9   5    1.69    0.82
  -4   9  -5    1.30    0.96
  -4   9  -5    2.54    1.22
  -4   9  -5    2.26    1.23
  -4   9  -5    1.40    1.17
  -4   9  -5    1.78    0.94
   4  -9   5    2.31    1.13
   4  -9   5    0.58    0.94
  -5   9  -5   -0.39    0.84
  -5   9  -5   -0.65    1.06
  -5   9  -5   -1.30    1.05
  -5   9  -5   -0.40    0.86
   5  -9   5    1.69    1.12
   5  -9   5   -0.23    0.83
   5  -9   5   -0.67    0.78
  -6   9  -5    4.23    1.76
  -6   9  -5    6.42    1.86
  -6   9  -5    6.19    1.48
  -6   9  -5    4.02    1.48
   6  -9   5    7.40    1.98
   6  -9   5    6.22    1.45
   6  -9   5    6.29    1.75
   6   8  -5   25.66    3.90
  -6  -8   5   32.52    3.08
  -6  -8   5   27.23    2.69
  -6  -8   5   27.69    1.10
  -6  -8   5   29.06    2.36
   5   8  -5    8.26    1.93
   5   8  -5    4.94    1.87
  -5  -8   5    6.32    1.19
  -5  -8   5    7.18    2.01
  -5  -8   5    6.99    0.96
   4   8  -5   -0.27    1.17
  -4  -8   5   -1.73    0.64
  -4  -8   5    0.14    0.56
  -4  -8   5    0.81    0.54
  -4  -8   5   -1.06    0.44
   3   8  -5   -0.99    0.87
   3   8  -5   -0.46    1.00
  -3  -8   5    0.64    0.53
  -3  -8   5    1.72    0.76
  -3  -8   5   -0.70    0.74
   2   8  -5    3.60    1.12
   2   8  -5    0.55    0.58
   2   8  -5    1.95    1.10
  -2  -8   5    0.50    0.62
  -2  -8   5    0.42    0.93
  -2  -8   5    0.09    0.65
   1   8  -5    3.75    1.32
   1   8  -5    1.86    0.85
  -1  -8   5    2.44    0.97
  -1  -8   5    0.30    0.78
   0   8  -5    1.19    0.85
   0   8  -5    2.32    0.70
   0   8  -5    0.17    1.02
   0  -8   5    1.59    0.87
   0  -8   5   -1.05    0.70
   0  -8   5    0.83    0.76
  -1   8  -5    7.17    1.55
  -1   8  -5    9.68    1.80
  -1   8  -5    7.84    0.84
   1  -8   5    8.55    0.86
   1  -8   5    8.46    1.69
   1  -8   5    7.50    1.52
   1  -8   5    8.58    1.75
  -2   8  -5    1.40    0.53
  -2   8  -5    0.92    1.03
  -2   8  -5    1.49    0.28
  -2   8  -5    2.31    0.52
  -2   8  -5    0.95    0.78
  -2   8  -5    4.26    1.22
   2  -8   5    1.28    0.81
   2  -8   5    1.52    0.62
   2  -8   5    2.17    1.18
   2  -8   5    1.28    0.79
  -3   8  -5   11.67    1.03
  -3   8  -5   15.76    1.31
  -3   8  -5   11.47    2.10
  -3   8  -5   18.55    2.55
  -3   8  -5   14.34    1.84
  -3   8  -5   10.97    1.09
  -3   8  -5   13.62    2.22
   3  -8   5   11.28    2.07
   3  -8   5   13.46    1.43
   3  -8   5   12.27    1.96
  -4   8  -5   24.86    2.56
  -4   8  -5   28.94    2.75
  -4   8  -5   23.46    1.94
  -4   8  -5   29.30    2.70
  -4   8  -5   25.49    2.29
   4  -8   5   26.56    2.28
   4  -8   5   26.85    2.63
   4  -8   5   27.57    2.63
  -5   8  -5    0.27    0.84
  -5   8  -5    2.22    1.14
  -5   8  -5    0.01    0.72
  -5   8  -5   -0.07    0.98
   5  -8   5    0.92    1.18
   5  -8   5    0.16    0.72
   5  -8   5    0.61    0.93
  -6   8  -5    1.49    1.29
  -6   8  -5    1.74    1.12
  -6   8  -5   -3.11    1.01
  -6   8  -5    0.68    1.02
   6  -8   5   -0.26    1.09
   6  -8   5   -1.33    1.03
   6  -8   5    0.43    0.90
  -7   8  -5    0.84    1.44
  -7   8  -5    2.96    1.44
  -7   8  -5    1.48    1.48
  -7   8  -5    3.15    1.34
   7  -8   5    2.66    1.08
   7  -8   5    2.59    1.35
   7  -8   5    2.96    1.50
   6   7  -5    2.78    1.74
  -6  -7   5    5.00    0.91
  -6  -7   5    5.84    1.51
  -6  -7   5    3.86    1.40
   5   7  -5    3.85    1.31
   5   7  -5    3.86    1.56
  -5  -7   5    4.11    1.15
  -5  -7   5    6.42    1.04
  -5  -7   5    4.08    1.12
  -5  -7   5    7.19    1.05
   4   7  -5    5.97    2.08
   4   7  -5    8.43    1.88
  -4  -7   5    5.88    1.00
  -4  -7   5    8.43    1.69
  -4  -7   5    5.71    1.03
  -4  -7   5    4.40    1.05
   3   7  -5    4.71    0.59
   3   7  -5    4.77    1.35
   3   7  -5    7.98    1.76
  -3  -7   5    3.10    1.13
  -3  -7   5    4.71    0.69
  -3  -7   5    5.81    1.06
  -3  -7   5    5.41    1.01
  -3  -7   5    4.47    0.84
  -3  -7   5    4.47    1.18
   2   7  -5   13.15    1.79
   2   7  -5   15.64    2.25
  -2  -7   5   15.18    2.12
  -2  -7   5   13.41    1.89
  -2  -7   5   17.18    1.57
  -2  -7   5   13.62    1.37
   1   7  -5   31.93    2.62
   1   7  -5   28.02    2.19
  -1  -7   5   26.30    1.93
  -1  -7   5   25.90    2.19
  -1  -7   5   29.45    2.04
   0   7  -5    3.17    1.25
   0   7  -5    3.32    0.92
   0   7  -5    2.62    0.97
   0  -7   5    3.60    1.08
   0  -7   5    2.25    0.92
   0  -7   5    3.91    1.20
  -1   7  -5   85.06    3.87
  -1   7  -5   85.54    4.17
  -1   7  -5   83.49    2.77
   1  -7   5   78.06    3.74
   1  -7   5   87.03    3.87
   1  -7   5   84.76    3.83
  -2   7  -5   59.89    3.44
  -2   7  -5   58.91    2.95
  -2   7  -5   62.25    3.54
  -2   7  -5   58.86    3.46
   2  -7   5   56.00    3.75
   2  -7   5   57.16    2.31
   2  -7   5   60.82    3.38
   2  -7   5   60.97    3.24
  -3   7  -5    9.26    1.31
  -3   7  -5    9.37    1.73
  -3   7  -5   12.02    1.47
  -3   7  -5   10.95    2.04
  -3   7  -5    9.71    1.88
   3  -7   5   11.61    1.85
   3  -7   5   12.21    1.81
   3  -7   5   12.23    1.59
   3  -7   5   11.94    1.61
  -4   7  -5   26.76    2.09
  -4   7  -5   31.71    2.88
  -4   7  -5   28.17    2.59
  -4   7  -5   28.19    2.53
   4  -7   5   24.71    1.83
   4  -7   5   25.66    2.55
   4  -7   5   24.70    2.49
   4  -7   5   32.72    2.30
  -5   7  -5   -0.76    0.64
  -5   7  -5   -1.33    0.65
  -5   7  -5   -0.12    1.12
  -5   7  -5    0.36    0.85
   5  -7   5    0.18    0.63
   5  -7   5   -0.79    0.81
   5  -7   5    0.57    0.78
  -6   7  -5   14.11    2.40
  -6   7  -5   11.48    2.20
  -6   7  -5   12.13    2.50
  -6   7  -5   13.45    2.41
   6  -7   5   11.86    2.26
   6  -7   5   15.63    2.60
   6  -7   5   14.04    1.76
  -7   7  -5   -1.53    0.90
  -7   7  -5    2.06    1.14
  -7   7  -5    0.93    1.59
  -7   7  -5    1.48    1.09
   7  -7   5    0.11    0.96
   7  -7   5   -1.25    0.72
   7  -7   5    2.23    1.42
   7  -7   5   -0.03    1.13
   7   6  -5    9.97    2.37
   7   6  -5    4.52    2.29
  -7  -6   5    9.20    1.46
  -7  -6   5    9.99    2.09
  -7  -6   5   11.67    1.01
   6   6  -5    6.29    1.66
   6   6  -5   10.97    2.56
  -6  -6   5   11.56    1.08
  -6  -6   5    9.28    1.86
  -6  -6   5   10.12    1.55
  -6  -6   5    9.31    1.62
  -6  -6   5    9.36    1.22
   5   6  -5    4.10    1.65
   5   6  -5    5.99    1.42
  -5  -6   5    5.71    1.28
  -5  -6   5    5.78    1.23
  -5  -6   5    2.93    0.75
  -5  -6   5    3.81    0.79
  -5  -6   5    2.16    1.13
   4   6  -5    0.57    0.91
   4   6  -5   -0.47    0.68
   4   6  -5    0.68    0.83
  -4  -6   5   -0.21    0.76
  -4  -6   5    0.35    0.64
  -4  -6   5    1.13    0.84
  -4  -6   5    0.39    0.46
   3   6  -5   -0.08    0.91
   3   6  -5   -0.04    0.38
   3   6  -5    0.26    0.41
  -3  -6   5    1.54    0.52
  -3  -6   5    0.43    0.52
  -3  -6   5    0.37    0.70
  -3  -6   5    0.06    0.70
  -3  -6   5    0.58    0.58
   2   6  -5    4.71    1.23
   2   6  -5    6.02    1.05
   2   6  -5    5.32    1.35
  -2  -6   5    4.96    1.02
  -2  -6   5    5.40    1.17
  -2  -6   5    7.31    1.46
  -2  -6   5    5.58    0.53
  -2  -6   5    5.19    0.97
   1   6  -5   13.28    1.68
   1   6  -5   12.87    1.97
  -1  -6   5   12.76    1.64
  -1  -6   5   12.30    1.54
  -1  -6   5   11.81    1.83
   0   6  -5    2.17    1.03
   0   6  -5    2.82    1.12
   0  -6   5    1.74    0.73
   0  -6   5    3.07    0.96
   0  -6   5    2.65    0.89
  -1   6  -5    3.57    1.20
  -1   6  -5    4.10    1.20
   1  -6   5    3.13    0.90
   1  -6   5    4.17    1.12
   1  -6   5    3.83    1.11
   1  -6   5    2.55    0.99
   1  -6   5    3.35    0.58
  -2   6  -5   13.90    1.17
  -2   6  -5   12.44    1.83
  -2   6  -5   14.71    2.08
   2  -6   5   13.12    1.86
   2  -6   5   14.72    1.16
   2  -6   5   11.93    1.79
   2  -6   5   15.28    2.35
   2  -6   5   15.39    2.16
  -3   6  -5    1.96    0.92
  -3   6  -5    0.20    0.82
  -3   6  -5    2.51    1.08
  -3   6  -5    0.00    0.77
  -3   6  -5    1.80    0.68
   3  -6   5    1.23    0.66
   3  -6   5    2.67    1.19
   3  -6   5    2.16    0.73
   3  -6   5    1.87    0.78
  -4   6  -5    1.44    0.94
  -4   6  -5    0.94    0.84
  -4   6  -5    3.01    1.00
  -4   6  -5    1.76    1.01
   4  -6   5    2.02    1.14
   4  -6   5    1.41    0.77
   4  -6   5    0.72    0.57
  -5   6  -5    1.66    1.04
  -5   6  -5    1.91    1.30
  -5   6  -5    3.21    1.23
  -5   6  -5    0.78    0.92
   5  -6   5    1.45    0.73
   5  -6   5    0.83    0.84
   5  -6   5    0.88    1.04
  -6   6  -5   29.96    2.90
  -6   6  -5   30.20    3.04
   6  -6   5   33.42    2.74
   6  -6   5   28.08    2.84
   6  -6   5   24.40    1.74
   6  -6   5   29.31    4.15
  -7   6  -5    0.39    1.08
  -7   6  -5    1.20    1.35
  -7   6  -5    2.35    1.46
   7  -6   5    1.37    1.24
   7  -6   5    1.93    1.24
   7  -6   5    1.06    0.57
   7  -6   5    0.16    1.12
  -8   6  -5    1.88    1.47
  -8   6  -5   -1.12    1.28
  -8   6  -5    0.27    1.10
   8  -6   5   -0.14    1.38
   8  -6   5    1.00    1.24
   8  -6   5    0.02    1.39
   8   5  -5   -0.93    1.92
   8   5  -5    2.99    1.58
  -8  -5   5   -0.05    0.76
  -8  -5   5   -0.61    0.96
  -8  -5   5    1.34    0.68
  -8  -5   5    0.21    0.80
   7   5  -5   -0.16    1.13
   7   5  -5    2.96    2.08
  -7  -5   5    0.69    0.78
  -7  -5   5    1.54    0.71
  -7  -5   5   -0.67    1.01
   6   5  -5   24.59    2.48
  -6  -5   5   22.91    1.98
  -6  -5   5   22.42    2.78
  -6  -5   5   21.26    1.52
  -6  -5   5   17.23    1.61
  -6  -5   5   23.49    2.16
   5   5  -5    7.03    1.50
   5   5  -5    6.93    1.87
  -5  -5   5    9.10    1.49
  -5  -5   5    7.57    1.52
  -5  -5   5   10.87    1.33
  -5  -5   5    8.21    1.25
  -5  -5   5    6.36    1.13
   4   5  -5    2.84    1.03
   4   5  -5    3.76    0.95
   4   5  -5    3.16    0.52
   4   5  -5    4.64    1.49
  -4  -5   5    2.41    0.78
  -4  -5   5    2.24    0.71
  -4  -5   5    3.58    0.78
  -4  -5   5    5.45    1.27
  -4  -5   5    4.77    1.07
   3   5  -5    1.52    0.51
   3   5  -5   -0.50    0.50
   3   5  -5   -0.41    0.60
   3   5  -5   -0.36    0.62
  -3  -5   5    0.53    0.50
  -3  -5   5    0.39    0.46
  -3  -5   5    0.03    0.49
  -3  -5   5   -0.04    0.49
   2   5  -5   13.62    2.09
   2   5  -5   13.31    1.78
   2   5  -5   14.86    2.07
  -2  -5   5   13.67    0.97
  -2  -5   5   11.47    1.56
  -2  -5   5   12.50    1.64
  -2  -5   5   13.07    1.20
   1   5  -5    0.82    0.46
   1   5  -5    0.99    0.54
   1   5  -5    0.58    0.56
   1   5  -5   -0.13    0.44
   1   5  -5    0.37    0.52
  -1  -5   5   -0.01    0.49
  -1  -5   5   -0.02    0.41
  -1  -5   5    0.31    0.66
  -1  -5   5    0.05    0.59
  -1  -5   5    0.22    0.28
  -1  -5   5    0.26    0.50
  -1  -5   5   -0.25    0.41
   0   5  -5    9.83    1.36
   0   5  -5    7.34    1.36
   0   5  -5    7.73    1.30
   0   5  -5    6.65    1.03
   0   5  -5    6.17    1.19
   0  -5   5   12.27    1.66
   0  -5   5    9.60    1.45
   0  -5   5    7.87    1.42
   0  -5   5    7.27    1.19
   0  -5   5    7.01    1.22
   0  -5   5    8.51    1.54
  -1   5  -5   21.32    1.63
  -1   5  -5   20.28    1.60
  -1   5  -5   19.23    1.70
  -1   5  -5   17.52    1.56
  -1   5  -5   17.60    1.71
   1  -5   5   18.72    1.13
   1  -5   5   20.68    1.73
   1  -5   5   18.18    1.57
   1  -5   5   16.80    1.63
   1  -5   5   20.04    1.69
   1  -5   5   21.64    1.58
  -2   5  -5    0.77    0.53
  -2   5  -5    0.71    0.67
  -2   5  -5    1.66    0.73
  -2   5  -5   -0.01    0.57
  -2   5  -5    1.30    0.66
  -2   5  -5    0.44    0.64
   2  -5   5    0.64    0.43
   2  -5   5    0.35    0.45
   2  -5   5    0.89    0.77
   2  -5   5    1.00    0.45
   2  -5   5    0.33    0.46
  -3   5  -5   25.75    2.01
  -3   5  -5   27.75    1.98
  -3   5  -5   27.26    2.25
  -3   5  -5   26.69    1.80
  -3   5  -5   23.60    2.10
   3  -5   5   27.43    2.21
   3  -5   5   23.26    2.02
   3  -5   5   24.31    1.72
   3  -5   5   26.01    1.91
   3  -5   5   23.33    1.40
  -4   5  -5   78.41    4.06
  -4   5  -5   61.94    3.81
  -4   5  -5   68.05    3.52
  -4   5  -5   70.82    3.73
  -4   5  -5   62.00    3.35
   4  -5   5   68.19    3.49
   4  -5   5   64.04    2.04
   4  -5   5   71.84    2.88
   4  -5   5   69.77    3.57
  -5   5  -5   -0.55    0.85
  -5   5  -5   -0.66    0.72
  -5   5  -5    0.33    0.93
   5  -5   5   -0.26    0.50
   5  -5   5    1.38    1.01
   5  -5   5   -0.70    0.37
   5  -5   5    0.20    0.80
  -6   5  -5    0.17    1.07
  -6   5  -5    2.11    1.04
   6  -5   5    0.99    0.97
   6  -5   5    1.24    1.26
   6  -5   5    1.68    1.15
   6  -5   5    1.27    0.58
  -7   5  -5    3.00    1.41
  -7   5  -5    3.35    1.53
  -7   5  -5    1.36    0.86
   7  -5   5    2.82    1.43
   7  -5   5    3.38    1.50
   7  -5   5    4.18    1.86
  -8   5  -5   12.78    2.84
  -8   5  -5   11.80    2.34
  -8   5  -5   11.76    2.45
   8  -5   5    8.23    1.99
   8  -5   5   11.01    2.29
   8  -5   5   10.93    2.52
   8   4  -5    0.86    1.40
  -8  -4   5    3.90    1.00
  -8  -4   5    3.82    1.35
  -8  -4   5    1.60    0.94
   7   4  -5    3.27    1.50
   7   4  -5    5.01    1.39
  -7  -4   5    3.92    1.04
  -7  -4   5    5.48    1.07
  -7  -4   5    3.47    0.92
  -7  -4   5    3.98    1.31
   6   4  -5    2.86    1.39
   6   4  -5    1.32    1.01
  -6  -4   5    1.53    0.67
  -6  -4   5    2.19    0.91
  -6  -4   5    1.21    0.64
  -6  -4   5    0.95    0.59
   5   4  -5   -0.16    0.62
   5   4  -5    0.29    0.30
   5   4  -5   -0.35    0.62
   5   4  -5    0.68    1.14
  -5  -4   5   -0.60    0.33
  -5  -4   5    0.49    0.52
  -5  -4   5    0.00    0.37
  -5  -4   5    0.81    0.50
   4   4  -5    7.46    1.69
   4   4  -5    8.78    1.41
   4   4  -5    8.97    1.36
  -4  -4   5    8.10    1.32
  -4  -4   5    7.09    1.12
  -4  -4   5    6.94    0.86
  -4  -4   5    8.26    1.20
  -4  -4   5    7.94    1.37
   3   4  -5   19.09    1.85
   3   4  -5   25.55    1.48
   3   4  -5   21.98    1.89
   3   4  -5   26.76    1.61
   3   4  -5   23.06    1.74
  -3  -4   5   24.29    1.79
  -3  -4   5   22.35    1.50
  -3  -4   5   20.81    1.21
  -3  -4   5   23.02    1.59
  -3  -4   5   21.76    1.70
   2   4  -5  111.71    2.43
   2   4  -5  119.86    3.92
   2   4  -5  111.72    4.05
   2   4  -5  111.36    3.27
   2   4  -5  113.71    4.14
  -2  -4   5  116.32    4.09
  -2  -4   5  114.64    3.99
  -2  -4   5  111.09    3.64
  -2  -4   5  111.01    3.14
  -2  -4   5  116.06    3.55
  -2  -4   5  117.36    3.89
   1   4  -5   65.76    2.07
   1   4  -5   58.56    2.68
   1   4  -5   63.24    2.82
   1   4  -5   63.68    2.47
   1   4  -5   65.69    2.70
  -1  -4   5   62.53    2.60
  -1  -4   5   62.90    2.76
  -1  -4   5   63.87    2.72
  -1  -4   5   68.90    3.25
  -1  -4   5   65.52    2.09
  -1  -4   5   59.01    2.75
  -1  -4   5   67.96    2.92
   0   4  -5    0.68    0.44
   0   4  -5   -0.39    0.43
   0   4  -5    0.59    0.59
   0   4  -5    0.32    0.41
   0  -4   5    0.38    0.45
   0  -4   5    1.03    0.52
   0  -4   5   -0.07    0.49
   0  -4   5    0.12    0.26
   0  -4   5    0.83    0.50
   0  -4   5   -0.80    0.49
  -1   4  -5    1.72    0.69
  -1   4  -5    1.31    0.61
  -1   4  -5    0.96    0.67
  -1   4  -5    1.20    0.55
  -1   4  -5    1.58    0.72
  -1   4  -5    0.55    0.53
   1  -4   5    2.47    0.80
   1  -4   5    1.20    0.66
   1  -4   5    2.05    0.52
   1  -4   5    0.85    0.55
   1  -4   5    1.34    0.51
   1  -4   5    1.58    0.69
  -2   4  -5    0.22    0.38
  -2   4  -5    0.71    0.57
  -2   4  -5    0.43    0.63
  -2   4  -5    0.53    0.64
  -2   4  -5    1.52    0.53
  -2   4  -5    1.43    0.59
  -2   4  -5   -0.05    0.49
   2  -4   5    1.04    0.54
   2  -4   5    0.75    0.48
   2  -4   5    0.38    0.58
   2  -4   5    0.67    0.52
   2  -4   5    0.54    0.42
  -3   4  -5    2.45    0.88
  -3   4  -5    2.79    0.97
  -3   4  -5    3.34    0.78
  -3   4  -5    3.63    1.15
  -3   4  -5    3.33    1.04
  -3   4  -5    1.95    0.74
  -3   4  -5    2.99    0.90
   3  -4   5    2.25    0.81
   3  -4   5    2.87    0.50
   3  -4   5    3.88    0.85
   3  -4   5    3.31    1.07
   3  -4   5    2.34    0.88
  -4   4  -5   15.52    2.04
  -4   4  -5   14.62    2.02
  -4   4  -5   12.88    1.20
  -4   4  -5   18.56    2.36
   4  -4   5   11.84    2.04
   4  -4   5   16.24    1.27
   4  -4   5   17.06    2.34
   4  -4   5   13.37    1.92
  -5   4  -5    0.78    0.78
  -5   4  -5    0.46    0.98
  -5   4  -5    0.68    0.93
  -5   4  -5    0.34    0.89
   5  -4   5   -0.73    0.34
   5  -4   5    0.05    0.85
   5  -4   5    0.10    0.80
   5  -4   5    1.00    0.44
  -6   4  -5    4.16    1.30
  -6   4  -5    2.19    1.30
  -6   4  -5    3.32    1.23
  -6   4  -5    3.27    1.38
   6  -4   5    2.43    1.13
   6  -4   5    2.42    0.75
   6  -4   5    2.93    1.50
   6  -4   5    3.13    1.23
  -7   4  -5    0.43    1.04
  -7   4  -5    0.93    1.34
  -7   4  -5    0.92    1.28
   7  -4   5    3.15    1.31
   7  -4   5   -0.03    1.01
   7  -4   5    1.51    1.03
  -8   4  -5    0.48    1.27
  -8   4  -5   -1.29    0.84
  -8   4  -5   -0.20    1.13
   8  -4   5    0.61    1.49
   8  -4   5   -2.62    1.21
   9   3  -5    5.53    2.12
   9   3  -5    3.19    1.92
  -9  -3   5    3.13    1.11
  -9  -3   5    5.23    1.73
   8   3  -5   -0.41    1.44
   8   3  -5    0.76    0.92
  -8  -3   5    1.21    0.95
  -8  -3   5    0.80    0.77
  -8  -3   5   -0.21    0.58
  -8  -3   5    0.96    0.80
   7   3  -5   24.22    3.53
   7   3  -5   26.56    2.66
  -7  -3   5   27.81    2.00
  -7  -3   5   27.72    2.00
  -7  -3   5   29.74    2.72
   6   3  -5   52.93    2.54
   6   3  -5   51.66    3.34
   6   3  -5   49.83    1.96
   6   3  -5   46.82    3.57
  -6  -3   5   55.11    2.60
  -6  -3   5   49.16    3.18
  -6  -3   5   51.95    2.43
  -6  -3   5   52.34    2.62
   5   3  -5    3.48    0.68
   5   3  -5    3.17    1.31
   5   3  -5    3.05    0.91
   5   3  -5    2.92    1.06
  -5  -3   5    4.72    0.97
  -5  -3   5    4.21    1.16
  -5  -3   5    4.08    0.93
  -5  -3   5    4.45    0.91
   4   3  -5   13.65    1.32
   4   3  -5   13.56    1.11
   4   3  -5   15.55    2.23
   4   3  -5   13.79    1.86
  -4  -3   5   14.73    1.35
  -4  -3   5   12.37    1.22
  -4  -3   5   12.04    1.01
  -4  -3   5   15.88    2.09
   3   3  -5   41.32    1.85
   3   3  -5   38.56    2.46
   3   3  -5   43.71    2.18
   3   3  -5   40.48    1.83
   3   3  -5   42.68    2.37
  -3  -3   5   39.73    2.11
  -3  -3   5   40.39    2.37
  -3  -3   5   41.89    2.02
  -3  -3   5   41.66    2.14
  -3  -3   5   41.94    2.11
   2   3  -5    4.03    0.81
   2   3  -5    5.03    0.63
   2   3  -5    6.25    0.99
   2   3  -5    5.53    1.04
   2   3  -5    6.09    1.06
   2   3  -5    6.32    0.92
  -2  -3   5    3.45    0.81
  -2  -3   5    5.87    1.00
  -2  -3   5    4.57    0.94
  -2  -3   5    5.51    0.90
  -2  -3   5    5.23    0.96
   1   3  -5   12.27    1.43
   1   3  -5   13.20    1.26
   1   3  -5   15.31    1.25
   1   3  -5   12.08    1.13
   1   3  -5   13.62    0.58
   1   3  -5   14.30    1.29
  -1  -3   5   13.20    1.23
  -1  -3   5   17.03    1.63
  -1  -3   5   14.45    1.09
  -1  -3   5   13.67    1.22
  -1  -3   5   14.39    1.29
   0   3  -5    6.99    1.05
   0   3  -5    7.35    1.23
   0   3  -5    5.66    0.99
   0   3  -5    9.07    1.24
   0   3  -5    7.73    1.04
   0  -3   5    8.00    1.36
   0  -3   5    6.34    1.06
   0  -3   5    7.03    1.12
   0  -3   5    7.20    1.16
   0  -3   5    7.65    1.21
   0  -3   5    6.53    0.98
  -1   3  -5   25.42    1.51
  -1   3  -5   28.78    1.84
  -1   3  -5   30.52    2.05
  -1   3  -5   27.41    1.64
  -1   3  -5   27.02    1.77
  -1   3  -5   26.27    1.38
   1  -3   5   29.54    1.49
   1  -3   5   28.96    1.67
   1  -3   5   29.69    1.83
   1  -3   5   26.86    1.71
   1  -3   5   28.78    1.92
   1  -3   5   24.87    1.43
  -2   3  -5    0.23    0.65
  -2   3  -5    0.26    0.46
  -2   3  -5    0.00    0.56
  -2   3  -5   -0.61    0.31
  -2   3  -5    0.39    0.47
  -2   3  -5    0.24    0.55
  -2   3  -5   -0.18    0.42
   2  -3   5    1.10    0.60
   2  -3   5    0.12    0.39
   2  -3   5    0.16    0.47
   2  -3   5   -0.09    0.54
   2  -3   5    0.25    0.31
   2  -3   5    0.91    0.51
   2  -3   5    0.17    0.55
  -3   3  -5   13.99    1.45
  -3   3  -5   17.41    1.60
  -3   3  -5   15.90    1.63
  -3   3  -5   18.59    1.28
  -3   3  -5   13.25    1.86
  -3   3  -5   15.25    1.50
   3  -3   5   14.47    1.49
   3  -3   5   15.13    1.59
   3  -3   5   14.14    1.78
   3  -3   5   14.87    1.39
   3  -3   5   16.68    1.22
  -4   3  -5    1.32    1.00
  -4   3  -5   -0.08    0.53
  -4   3  -5    1.14    0.53
  -4   3  -5    0.55    0.75
  -4   3  -5    0.02    0.80
   4  -3   5    2.13    0.94
   4  -3   5   -0.02    0.49
   4  -3   5    2.03    0.77
   4  -3   5    0.98    0.47
  -5   3  -5    3.77    1.23
  -5   3  -5    5.34    1.35
  -5   3  -5    5.35    1.60
  -5   3  -5    5.26    0.75
   5  -3   5    2.71    0.96
   5  -3   5    4.13    0.65
   5  -3   5    7.83    1.81
   5  -3   5    5.11    1.46
  -6   3  -5    2.37    1.27
  -6   3  -5    4.24    1.35
  -6   3  -5    1.64    1.06
  -6   3  -5    3.27    1.09
   6  -3   5    2.72    1.52
   6  -3   5    4.48    1.27
   6  -3   5    4.16    1.55
  -7   3  -5    8.57    1.94
  -7   3  -5   10.56    2.12
  -7   3  -5    9.69    1.92
   7  -3   5   14.24    2.80
   7  -3   5    8.84    2.23
   7  -3   5   10.37    1.61
  -8   3  -5   12.46    2.63
  -8   3  -5   16.43    2.64
  -8   3  -5   23.03    3.10
   8  -3   5   16.45    2.90
   8  -3   5   16.58    3.18
   9   2  -5    2.96    1.18
   9   2  -5    3.61    1.59
  -9  -2   5    4.93    1.76
  -9  -2   5    4.74    1.28
   8   2  -5    0.59    0.79
   8   2  -5    0.34    0.62
   8   2  -5    2.44    1.23
   8   2  -5    0.74    1.10
  -8  -2   5    0.67    0.92
  -8  -2   5    0.15    0.50
  -8  -2   5    0.57    0.79
  -8  -2   5    0.97    0.90
   7   2  -5    1.61    0.69
   7   2  -5    2.15    1.23
   7   2  -5    2.78    0.71
   7   2  -5    1.62    1.39
  -7  -2   5    4.15    1.35
  -7  -2   5    3.58    0.98
  -7  -2   5    2.77    0.71
  -7  -2   5    1.47    0.77
   6   2  -5   14.58    1.01
   6   2  -5   16.33    1.42
   6   2  -5   15.88    2.23
   6   2  -5   14.55    2.41
  -6  -2   5   16.66    1.55
  -6  -2   5   16.16    1.33
  -6  -2   5   19.33    2.47
  -6  -2   5   15.21    1.45
   5   2  -5    5.04    1.19
   5   2  -5    5.61    1.06
   5   2  -5    7.14    1.57
   5   2  -5    6.68    1.17
  -5  -2   5    6.26    1.10
  -5  -2   5    9.73    1.63
  -5  -2   5    8.37    1.24
  -5  -2   5    7.43    1.12
   4   2  -5    8.20    1.21
   4   2  -5    6.15    1.38
   4   2  -5    8.27    1.09
   4   2  -5    7.49    1.24
  -4  -2   5    7.53    1.31
  -4  -2   5    9.04    1.46
  -4  -2   5    9.21    1.48
  -4  -2   5    8.33    1.10
   3   2  -5    6.17    1.00
   3   2  -5    6.58    1.14
   3   2  -5    7.57    1.46
   3   2  -5    6.33    1.13
   3   2  -5    7.42    1.18
   3   2  -5    6.40    0.99
  -3  -2   5    8.60    1.28
  -3  -2   5    4.95    0.93
  -3  -2   5    5.04    1.00
  -3  -2   5    7.70    1.12
  -3  -2   5    5.02    0.99
   2   2  -5    1.83    0.60
   2   2  -5    3.17    0.99
   2   2  -5    1.50    0.62
   2   2  -5    2.53    0.71
   2   2  -5    1.06    0.53
   2   2  -5    2.54    0.75
  -2  -2   5    1.94    0.31
  -2  -2   5    2.99    0.76
  -2  -2   5    2.02    0.68
  -2  -2   5    3.02    0.75
  -2  -2   5    2.18    0.73
  -2  -2   5    2.47    0.73
   1   2  -5  271.61    5.87
   1   2  -5  292.48    6.36
   1   2  -5  277.24    5.65
   1   2  -5  275.29    5.88
   1   2  -5  274.98    5.93
  -1  -2   5  268.73    5.85
  -1  -2   5  273.77    5.92
  -1  -2   5  267.67    5.64
  -1  -2   5  274.46    6.01
  -1  -2   5  284.27    5.21
  -1  -2   5  282.54    6.24
   0   2  -5  462.18    8.46
   0   2  -5  468.30    8.71
   0   2  -5  453.21    8.65
   0   2  -5  458.71    9.00
   0   2  -5  462.71    7.96
   0   2  -5  473.07    8.60
   0  -2   5  468.13    8.50
   0  -2   5  469.00    8.62
   0  -2   5  462.57    7.94
   0  -2   5  467.54    8.97
   0  -2   5  466.42    8.78
   0  -2   5  454.35    8.42
   0  -2   5  451.90    8.42
  -1   2  -5  166.59    4.64
  -1   2  -5  167.43    4.28
  -1   2  -5  160.97    4.19
  -1   2  -5  168.43    3.66
  -1   2  -5  163.54    4.46
  -1   2  -5  162.20    4.09
  -1   2  -5  165.55    4.76
   1  -2   5  163.68    4.14
   1  -2   5  171.09    4.66
   1  -2   5  159.31    5.05
   1  -2   5  156.82    4.58
   1  -2   5  158.71    4.34
   1  -2   5  174.97    4.19
   1  -2   5  169.76    4.57
  -2   2  -5   43.73    1.74
  -2   2  -5   49.93    2.40
  -2   2  -5   47.09    2.55
  -2   2  -5   43.58    1.90
  -2   2  -5   43.69    2.25
  -2   2  -5   45.59    2.45
  -2   2  -5   45.28    2.17
   2  -2   5   47.71    2.10
   2  -2   5   48.23    2.35
   2  -2   5   44.20    2.54
   2  -2   5   46.02    1.93
   2  -2   5   45.01    2.45
   2  -2   5   46.09    2.38
  -3   2  -5   46.42    2.61
  -3   2  -5   44.85    2.59
  -3   2  -5   47.31    2.37
  -3   2  -5   45.68    1.90
  -3   2  -5   42.70    2.71
  -3   2  -5   45.13    2.40
   3  -2   5   42.91    2.36
   3  -2   5   47.88    1.90
   3  -2   5   46.66    2.86
   3  -2   5   50.14    2.55
   3  -2   5   46.50    2.24
   3  -2   5   44.58    3.28
  -4   2  -5    4.59    1.17
  -4   2  -5    2.34    1.19
  -4   2  -5    3.29    0.89
  -4   2  -5    3.66    0.99
  -4   2  -5    3.13    0.68
   4  -2   5    3.09    0.88
   4  -2   5    4.84    1.67
   4  -2   5    4.37    1.28
   4  -2   5    4.04    1.02
   4  -2   5    3.40    0.64
  -5   2  -5    4.75    1.19
  -5   2  -5    5.38    1.64
  -5   2  -5    5.35    1.20
  -5   2  -5    4.62    0.66
   5  -2   5    4.03    1.49
   5  -2   5    4.43    1.47
   5  -2   5    3.92    1.24
  -6   2  -5    8.47    1.69
  -6   2  -5    7.92    1.89
  -6   2  -5    7.98    1.52
  -6   2  -5    9.83    1.80
   6  -2   5   11.66    2.40
   6  -2   5    8.89    1.88
   6  -2   5   10.57    1.58
  -7   2  -5    5.24    1.51
  -7   2  -5    4.72    1.32
  -7   2  -5    6.72    1.30
  -7   2  -5    6.26    1.91
   7  -2   5    5.74    2.10
   7  -2   5    2.56    1.43
  -8   2  -5   -0.03    0.88
  -8   2  -5    3.37    1.61
  -8   2  -5    2.86    1.12
   8  -2   5    0.42    1.11
   8  -2   5    0.33    1.30
   9   1  -5    0.55    0.94
   9   1  -5    2.30    1.83
   9   1  -5    1.99    1.41
  -9  -1   5    1.70    0.82
  -9  -1   5    1.29    1.12
   8   1  -5    0.74    1.11
   8   1  -5    0.26    0.59
   8   1  -5   -0.61    0.96
  -8  -1   5   -0.33    0.79
  -8  -1   5    0.93    0.79
  -8  -1   5    0.11    0.57
  -8  -1   5    0.38    0.39
   7   1  -5   34.71    3.24
   7   1  -5   31.14    2.01
   7   1  -5   30.59    1.70
   7   1  -5   33.57    2.92
   7   1  -5   28.95    1.70
  -7  -1   5   34.76    2.79
  -7  -1   5   33.77    2.42
  -7  -1   5   30.66    2.32
  -7  -1   5   28.26    1.56
   6   1  -5   14.16    1.01
   6   1  -5   14.20    1.21
   6   1  -5   18.97    2.54
   6   1  -5   13.46    2.47
  -6  -1   5   12.86    1.17
  -6  -1   5   17.24    1.65
  -6  -1   5   16.22    1.65
  -6  -1   5   12.33    1.98
   5   1  -5    5.35    0.47
   5   1  -5    7.49    1.43
   5   1  -5    4.31    0.99
   5   1  -5    4.95    0.96
   5   1  -5    6.55    1.45
  -5  -1   5    5.10    1.24
  -5  -1   5    6.46    1.17
  -5  -1   5    8.14    1.12
  -5  -1   5    4.94    0.97
   4   1  -5    6.92    1.24
   4   1  -5    6.55    1.42
   4   1  -5    6.81    1.12
   4   1  -5    8.52    1.36
   4   1  -5    9.03    1.20
   4   1  -5    9.51    1.19
  -4  -1   5    5.23    1.12
  -4  -1   5    8.66    1.13
  -4  -1   5    9.06    1.28
  -4  -1   5    7.54    1.29
  -4  -1   5    7.52    1.38
  -4  -1   5    6.76    1.15
   3   1  -5   39.21    1.98
   3   1  -5   38.18    2.17
   3   1  -5   39.46    2.46
   3   1  -5   45.36    2.50
   3   1  -5   37.55    1.88
  -3  -1   5   36.26    1.97
  -3  -1   5   42.39    2.11
  -3  -1   5   40.08    1.92
  -3  -1   5   39.74    2.22
  -3  -1   5   39.00    2.35
   2   1  -5    4.55    0.97
   2   1  -5    3.81    0.92
   2   1  -5    4.78    0.81
   2   1  -5    4.29    0.87
  -2  -1   5    4.36    0.85
  -2  -1   5    4.18    0.95
  -2  -1   5    3.55    0.37
  -2  -1   5    3.39    0.79
  -2  -1   5    5.38    0.87
  -2  -1   5    3.33    0.85
   1   1  -5  796.49   13.42
   1   1  -5  799.69   12.94
   1   1  -5  795.88   12.23
   1   1  -5  790.32   13.39
   1   1  -5  786.03   13.08
  -1  -1   5  813.24   12.40
  -1  -1   5  790.79   13.37
  -1  -1   5  803.11   13.45
  -1  -1   5  805.46   12.30
  -1  -1   5  810.68   12.99
  -1  -1   5  782.30   13.15
   0   1  -5  157.21    4.03
   0   1  -5  156.74    3.93
   0   1  -5  159.27    4.44
   0   1  -5  157.01    4.35
   0   1  -5  160.01    4.18
   0   1  -5  156.04    4.22
   0   1  -5  155.20    3.05
   0  -1   5  152.56    4.14
   0  -1   5  155.55    3.12
   0  -1   5  152.21    4.28
   0  -1   5  149.31    3.99
   0  -1   5  151.03    4.24
   0  -1   5  158.21    3.94
  -1   1  -5   -0.38    0.50
  -1   1  -5    0.41    0.23
  -1   1  -5    0.46    0.44
  -1   1  -5   -0.19    0.42
  -1   1  -5    0.73    0.50
  -1   1  -5   -0.27    0.40
  -1   1  -5    0.81    0.63
  -1   1  -5    0.56    0.69
   1  -1   5   -0.16    0.47
   1  -1   5    0.02    0.36
   1  -1   5   -0.25    0.32
   1  -1   5   -0.06    0.36
   1  -1   5   -0.12    0.34
   1  -1   5    0.23    0.51
  -2   1  -5   10.73    1.58
  -2   1  -5    9.79    0.68
  -2   1  -5   11.21    1.54
  -2   1  -5   10.05    1.18
  -2   1  -5   11.51    1.42
  -2   1  -5    9.42    1.42
  -2   1  -5    9.79    0.93
   2  -1   5    8.61    1.04
   2  -1   5    9.96    1.32
   2  -1   5    9.69    1.53
   2  -1   5    9.57    1.45
   2  -1   5   10.95    0.97
   2  -1   5   12.16    1.74
  -3   1  -5    9.30    1.03
  -3   1  -5   11.65    1.37
  -3   1  -5   11.28    2.05
  -3   1  -5   10.47    1.73
   3  -1   5   10.24    0.50
   3  -1   5   12.16    1.96
   3  -1   5   11.06    1.55
   3  -1   5   11.51    1.32
   3  -1   5   11.19    0.91
   3  -1   5   11.89    1.19
  -4   1  -5    0.44    0.65
  -4   1  -5    0.81    0.78
  -4   1  -5   -0.33    0.55
  -4   1  -5    0.38    0.40
  -4   1  -5    3.27    1.15
   4  -1   5    0.53    0.79
   4  -1   5   -0.04    0.27
   4  -1   5    0.49    0.85
   4  -1   5    0.12    0.39
   4  -1   5    1.84    0.58
  -5   1  -5   -0.34    0.60
  -5   1  -5   -0.06    0.74
  -5   1  -5    0.58    0.34
  -5   1  -5    0.14    0.63
  -5   1  -5    0.80    0.55
   5  -1   5   -0.31    0.81
   5  -1   5    0.04    0.37
   5  -1   5    0.35    0.77
  -6   1  -5    0.56    0.75
  -6   1  -5   -0.14    0.90
  -6   1  -5    0.06    0.80
  -6   1  -5    0.26    0.74
   6  -1   5    0.85    0.82
   6  -1   5    1.52    1.12
   6  -1   5    2.12    1.48
  -7   1  -5    1.13    0.81
  -7   1  -5   -0.27    0.95
  -7   1  -5    0.64    0.92
  -7   1  -5   -0.44    0.79
   7  -1   5    0.66    0.99
   7  -1   5    1.59    1.12
   7  -1   5    0.55    1.04
  -8   1  -5    3.07    1.39
  -8   1  -5    4.50    1.86
  -8   1  -5    4.24    1.29
   8  -1   5    1.80    1.69
   8  -1   5    2.60    1.67
   9   0  -5    0.00    0.84
   9   0  -5    0.74    1.41
   9   0  -5   -1.06    0.76
  -9   0   5    3.78    1.34
  -9   0   5    1.97    1.19
   8   0  -5    5.55    1.08
   8   0  -5    6.70    1.97
   8   0  -5    4.21    1.46
   8   0  -5    4.75    1.71
   8   0  -5    3.74    0.75
  -8   0   5    5.96    1.37
  -8   0   5    5.80    1.31
  -8   0   5    4.75    1.38
   7   0  -5    4.64    0.91
   7   0  -5    6.42    1.02
   7   0  -5    4.07    1.53
   7   0  -5    4.86    1.59
   7   0  -5    3.98    1.09
  -7   0   5    4.85    1.26
  -7   0   5    3.15    1.26
  -7   0   5    5.50    1.35
  -7   0   5    4.45    0.84
   6   0  -5   13.00    1.87
   6   0  -5    9.51    1.99
   6   0  -5   10.26    2.17
   6   0  -5    6.79    1.09
  -6   0   5   11.99    1.88
  -6   0   5   10.23    1.58
  -6   0   5   10.35    1.01
  -6   0   5   12.51    1.76
   5   0  -5   16.31    2.26
   5   0  -5   15.48    2.12
   5   0  -5   14.53    1.16
   5   0  -5   17.41    1.10
   5   0  -5   16.44    1.46
  -5   0   5   16.43    1.54
  -5   0   5   15.12    1.52
  -5   0   5   13.98    1.80
  -5   0   5   14.76    1.18
   4   0  -5    5.37    1.02
   4   0  -5    3.42    1.05
   4   0  -5    4.18    0.95
   4   0  -5    3.92    1.15
   4   0  -5    3.82    0.78
  -4   0   5    3.33    0.71
  -4   0   5    3.83    0.99
  -4   0   5    1.43    0.68
  -4   0   5    3.70    0.91
  -4   0   5    4.26    0.89
   3   0  -5  277.01    5.04
   3   0  -5  289.22    7.33
   3   0  -5  286.59    6.01
   3   0  -5  283.98    6.33
   3   0  -5  289.02    6.86
  -3   0   5  293.18    6.05
  -3   0   5  288.22    6.47
  -3   0   5  296.16    6.36
  -3   0   5  291.79    6.63
  -3   0   5  286.13    6.86
   2   0  -5   63.73    2.36
   2   0  -5   64.70    1.91
   2   0  -5   63.25    2.64
   2   0  -5   65.57    2.83
   2   0  -5   66.25    2.59
  -2   0   5   57.41    2.42
  -2   0   5   63.20    2.39
  -2   0   5   62.96    2.64
  -2   0   5   65.57    2.78
   1   0  -5  275.45    6.07
   1   0  -5  263.66    5.60
   1   0  -5  269.36    5.83
   1   0  -5  270.62    6.31
   1   0  -5  267.58    5.38
  -1   0   5  256.31    5.48
  -1   0   5  257.99    6.12
  -1   0   5  260.61    5.75
  -1   0   5  263.06    5.61
  -1   0   5  257.99    5.94
   0   0  -5  241.52    5.67
   0   0  -5  229.19    5.15
   0   0  -5  238.94    5.98
   0   0  -5  245.07    5.99
   0   0  -5  238.70    5.51
   0   0  -5  251.58    5.50
   0   0   5  244.58    4.47
   0   0   5  239.82    5.56
   0   0   5  236.91    5.64
   0   0   5  237.36    3.71
   0   0   5  242.64    5.26
   0   0   5  247.59    5.46
   0   0   5  231.54    5.79
  -1   0  -5   60.21    2.43
  -1   0  -5   65.81    1.97
  -1   0  -5   64.03    2.67
  -1   0  -5   60.40    2.92
  -1   0  -5   66.76    2.38
  -1   0  -5   61.06    2.79
  -1   0  -5   68.05    3.05
   1   0   5   62.86    2.52
   1   0   5   63.81    2.32
   1   0   5   61.40    2.43
   1   0   5   61.08    2.81
   1   0   5   64.65    2.94
  -2   0  -5    0.47    0.49
  -2   0  -5   -0.19    0.31
  -2   0  -5    0.73    0.44
  -2   0  -5   -0.17    0.63
  -2   0  -5    0.09    0.14
  -2   0  -5    0.07    0.48
  -2   0  -5   -0.11    0.56
   2   0   5   -0.11    0.45
   2   0   5    0.01    0.39
   2   0   5    0.16    0.34
   2   0   5    1.01    0.82
   2   0   5    0.20    0.45
   2   0   5    0.16    0.29
   2   0   5    0.18    0.41
  -3   0  -5    4.23    1.00
  -3   0  -5    3.91    1.21
  -3   0  -5    2.14    1.14
  -3   0  -5    2.30    0.57
  -3   0  -5    3.63    0.72
   3   0   5    2.36    1.22
   3   0   5    3.15    1.11
   3   0   5    3.92    0.56
   3   0   5    2.54    0.63
  -4   0  -5   25.18    1.82
  -4   0  -5   27.73    2.50
  -4   0  -5   28.13    1.47
  -4   0  -5   24.56    1.91
  -4   0  -5   28.19    1.78
  -4   0  -5   26.52    1.43
   4   0   5   25.07    2.62
   4   0   5   26.89    1.73
   4   0   5   28.78    2.53
  -5   0  -5   27.97    2.39
  -5   0  -5   25.92    1.94
  -5   0  -5   24.43    2.01
  -5   0  -5   21.64    1.23
  -5   0  -5   22.45    3.10
  -5   0  -5   23.27    1.60
   5   0   5   25.56    2.61
   5   0   5   26.96    2.88
  -6   0  -5    2.83    1.07
  -6   0  -5    2.00    0.91
  -6   0  -5    3.67    1.63
  -6   0  -5    2.32    0.98
   6   0   5    1.85    1.25
   6   0   5    3.51    1.80
   6   0   5    1.65    1.08
  -7   0  -5    2.32    1.08
  -7   0  -5    3.81    1.68
  -7   0  -5    2.57    1.14
  -7   0  -5    3.37    1.21
   7   0   5    4.13    1.69
   7   0   5    2.56    1.43
   7   0   5    5.55    1.67
  -8   0  -5    9.91    2.36
  -8   0  -5   11.26    1.95
  -8   0  -5   13.72    2.15
   8   0   5   12.05    3.08
   8   0   5   15.28    3.20
   9  -1  -5   -0.44    1.44
   9  -1  -5    1.00    1.36
  -9   1   5    1.16    0.91
  -9   1   5    1.72    0.92
   8  -1  -5    5.95    0.96
   8  -1  -5    7.15    1.91
   8  -1  -5    9.23    2.15
   8  -1  -5    6.60    1.49
   8  -1  -5    9.13    1.40
  -8   1   5   11.69    2.56
  -8   1   5    9.57    2.02
  -8   1   5    8.63    2.52
   7  -1  -5   14.30    1.26
   7  -1  -5   17.62    2.51
   7  -1  -5   19.46    2.81
   7  -1  -5   15.48    1.41
  -7   1   5   17.02    2.21
  -7   1   5   15.16    2.13
  -7   1   5   16.93    2.30
   6  -1  -5    0.36    0.45
   6  -1  -5   -0.97    0.44
   6  -1  -5    0.55    1.06
   6  -1  -5    0.33    0.51
   6  -1  -5    0.64    0.97
  -6   1   5    1.32    0.92
  -6   1   5    0.22    0.72
  -6   1   5    1.83    0.88
   5  -1  -5    0.74    0.47
   5  -1  -5    0.90    0.88
   5  -1  -5   -0.59    0.45
  -5   1   5    0.05    0.41
  -5   1   5    0.31    0.57
  -5   1   5    0.54    0.59
   4  -1  -5   41.60    2.25
   4  -1  -5   40.12    2.44
   4  -1  -5   37.78    2.19
   4  -1  -5   36.47    2.42
   4  -1  -5   36.26    1.82
  -4   1   5   38.81    2.13
  -4   1   5   35.13    1.81
  -4   1   5   38.88    2.25
  -4   1   5   33.09    2.32
  -4   1   5   39.66    2.31
   3  -1  -5  319.22    6.09
   3  -1  -5  324.19    7.23
   3  -1  -5  314.27    7.00
   3  -1  -5  318.05    7.54
   3  -1  -5  312.25    6.53
  -3   1   5  317.76    7.62
  -3   1   5  322.91    7.14
  -3   1   5  323.56    6.58
  -3   1   5  318.49    7.21
  -3   1   5  312.68    6.53
   2  -1  -5   67.49    2.79
   2  -1  -5   61.39    2.90
   2  -1  -5   70.06    2.72
   2  -1  -5   64.97    2.35
   2  -1  -5   64.98    2.45
  -2   1   5   68.56    2.78
  -2   1   5   68.73    2.55
  -2   1   5   67.98    2.52
  -2   1   5   67.47    2.72
  -2   1   5   68.95    2.97
   1  -1  -5  117.48    4.01
   1  -1  -5  113.56    3.47
   1  -1  -5  114.13    3.61
   1  -1  -5  120.69    3.43
  -1   1   5  114.51    3.48
  -1   1   5  112.90    3.58
  -1   1   5  117.98    3.46
  -1   1   5  117.51    2.59
  -1   1   5  110.49    3.84
  -1   1   5  107.40    3.48
   0  -1  -5    8.12    1.44
   0  -1  -5    7.34    1.10
   0  -1  -5    9.16    1.16
   0  -1  -5    7.70    1.07
   0  -1  -5    7.29    1.17
   0   1   5    7.66    1.16
   0   1   5    6.92    0.48
   0   1   5    8.16    1.34
   0   1   5    9.13    1.40
   0   1   5    7.21    0.42
   0   1   5    7.41    1.07
   0   1   5    6.81    1.05
  -1  -1  -5  158.38    5.04
  -1  -1  -5  159.88    5.22
  -1  -1  -5  158.86    4.92
  -1  -1  -5  157.57    4.09
  -1  -1  -5  159.57    4.25
  -1  -1  -5  159.79    4.40
   1   1   5  162.31    5.13
   1   1   5  166.97    5.71
   1   1   5  157.05    4.71
   1   1   5  148.39    4.03
   1   1   5  158.49    4.06
   1   1   5  160.86    4.05
  -2  -1  -5   79.95    3.04
  -2  -1  -5   80.28    2.74
  -2  -1  -5   81.55    1.60
  -2  -1  -5   77.11    3.57
  -2  -1  -5   83.21    3.87
  -2  -1  -5   83.98    2.90
  -2  -1  -5   79.43    3.72
  -2  -1  -5   85.41    2.25
   2   1   5   80.99    2.68
   2   1   5   83.08    3.83
   2   1   5   83.59    2.81
  -3  -1  -5    7.91    1.15
  -3  -1  -5    6.63    1.11
  -3  -1  -5    7.42    1.55
  -3  -1  -5    8.70    1.13
  -3  -1  -5    8.79    0.83
   3   1   5    7.04    0.98
   3   1   5    8.36    1.61
   3   1   5   10.64    2.07
   3   1   5    8.69    1.05
   3   1   5    7.97    0.81
  -4  -1  -5   39.95    2.02
  -4  -1  -5   39.82    1.78
  -4  -1  -5   40.39    2.32
  -4  -1  -5   41.80    3.16
  -4  -1  -5   42.86    2.23
  -4  -1  -5   40.17    1.88
   4   1   5   40.82    3.30
   4   1   5   38.95    1.97
   4   1   5   38.16    1.80
   4   1   5   45.53    3.25
   4   1   5   35.07    1.62
  -5  -1  -5   11.06    2.16
  -5  -1  -5    9.62    1.56
  -5  -1  -5   10.58    1.46
  -5  -1  -5   10.04    1.33
  -5  -1  -5    8.68    1.32
  -5  -1  -5    6.71    0.96
   5   1   5   11.15    1.57
   5   1   5   13.96    2.48
   5   1   5   10.45    2.31
   5   1   5    8.90    1.03
  -6  -1  -5    3.04    0.62
  -6  -1  -5    4.64    1.15
  -6  -1  -5    4.20    1.08
  -6  -1  -5    5.00    1.18
  -6  -1  -5    2.24    1.49
   6   1   5    1.63    1.07
   6   1   5    5.74    1.90
  -7  -1  -5   -1.31    0.74
  -7  -1  -5   -0.97    1.25
  -7  -1  -5   -0.46    0.64
  -7  -1  -5   -0.74    0.72
   7   1   5   -0.85    0.92
   7   1   5    1.80    1.49
   9  -2  -5    1.00    1.40
   9  -2  -5    1.28    1.18
   9  -2  -5   -0.53    1.21
   9  -2  -5   -0.78    0.86
  -9   2   5   -0.39    0.66
  -9   2   5   -0.60    0.92
   8  -2  -5    0.22    1.02
   8  -2  -5    0.62    0.60
   8  -2  -5    1.83    0.97
   8  -2  -5    1.16    0.82
  -8   2   5    0.23    1.07
  -8   2   5   -0.67    0.88
  -8   2   5    0.72    0.95
   7  -2  -5    0.81    0.62
   7  -2  -5    0.81    1.11
   7  -2  -5    1.53    1.02
   7  -2  -5    0.97    0.65
   7  -2  -5    0.75    0.82
  -7   2   5    0.61    0.88
  -7   2   5   -0.33    0.81
   6  -2  -5    0.38    0.81
   6  -2  -5    1.02    0.61
   6  -2  -5    1.47    1.13
   6  -2  -5   -0.03    0.63
  -6   2   5    1.46    0.80
  -6   2   5   -0.16    0.68
  -6   2   5   -0.07    0.47
   5  -2  -5   20.52    1.97
   5  -2  -5   20.30    1.78
   5  -2  -5   18.93    2.00
   5  -2  -5   23.07    1.53
  -5   2   5   22.92    2.13
  -5   2   5   25.36    2.03
   4  -2  -5    6.93    1.41
   4  -2  -5    7.27    1.29
   4  -2  -5    7.04    1.36
   4  -2  -5    3.88    1.02
   4  -2  -5    6.48    1.57
   4  -2  -5    5.99    1.03
  -4   2   5    5.37    1.06
  -4   2   5    5.46    1.16
  -4   2   5    6.92    1.29
  -4   2   5    6.97    1.35
   3  -2  -5   68.83    3.03
   3  -2  -5   69.65    2.67
   3  -2  -5   63.35    3.13
   3  -2  -5   69.71    2.97
   3  -2  -5   66.85    2.68
  -3   2   5   67.91    3.33
  -3   2   5   70.24    3.23
  -3   2   5   66.42    2.97
  -3   2   5   67.81    2.46
   2  -2  -5   85.35    3.16
   2  -2  -5   89.43    3.24
   2  -2  -5   87.86    3.34
   2  -2  -5   89.91    3.05
   2  -2  -5   86.94    3.51
  -2   2   5   86.45    2.75
  -2   2   5   87.34    3.21
  -2   2   5   87.77    3.30
  -2   2   5   88.11    3.55
   1  -2  -5   19.04    1.59
   1  -2  -5   19.33    1.53
   1  -2  -5   20.46    1.41
   1  -2  -5   19.89    1.41
   1  -2  -5   17.33    1.58
  -1   2   5   20.96    1.68
  -1   2   5   18.81    0.79
  -1   2   5   18.43    1.40
  -1   2   5   18.37    1.67
  -1   2   5   16.10    1.40
   0  -2  -5   25.44    1.67
   0  -2  -5   24.45    1.88
   0  -2  -5   25.83    1.57
   0  -2  -5   24.57    1.96
   0  -2  -5   25.35    1.62
   0   2   5   28.18    1.59
   0   2   5   26.18    1.71
   0   2   5   27.34    2.03
   0   2   5   24.48    1.90
   0   2   5   23.97    1.05
  -1  -2  -5    7.85    1.18
  -1  -2  -5    7.33    1.05
  -1  -2  -5    7.22    1.32
  -1  -2  -5    5.71    1.13
  -1  -2  -5    7.45    1.40
  -1  -2  -5    8.35    1.53
   1   2   5   10.43    1.21
   1   2   5    8.99    1.25
   1   2   5    8.10    0.51
   1   2   5    6.57    1.20
   1   2   5    6.25    1.30
  -2  -2  -5   23.79    1.65
  -2  -2  -5   25.34    0.95
  -2  -2  -5   24.20    2.20
  -2  -2  -5   27.33    1.59
  -2  -2  -5   25.27    1.05
   2   2   5   26.48    1.66
   2   2   5   20.73    1.51
   2   2   5   26.26    1.41
  -3  -2  -5   16.37    1.28
  -3  -2  -5   15.55    1.38
  -3  -2  -5   16.57    1.43
  -3  -2  -5   19.28    2.54
  -3  -2  -5   15.37    1.05
  -3  -2  -5   14.66    1.01
   3   2   5   19.87    2.62
   3   2   5   14.39    1.30
  -4  -2  -5   15.75    1.28
  -4  -2  -5   15.49    1.45
  -4  -2  -5   16.04    1.35
  -4  -2  -5   16.43    2.56
  -4  -2  -5   16.46    1.52
  -4  -2  -5   15.92    1.20
   4   2   5   15.25    2.46
   4   2   5   14.98    2.70
   4   2   5   19.39    1.42
   4   2   5   15.63    0.93
  -5  -2  -5    0.75    0.64
  -5  -2  -5    0.67    0.74
  -5  -2  -5    0.05    0.55
  -5  -2  -5    0.20    0.62
  -5  -2  -5    0.43    0.72
  -5  -2  -5    0.09    1.09
   5   2   5   -0.04    0.68
   5   2   5    0.90    0.91
  -6  -2  -5    1.62    0.70
  -6  -2  -5    2.65    1.53
  -6  -2  -5    1.94    0.87
   6   2   5    2.62    1.37
   6   2   5    6.88    2.03
  -7  -2  -5    1.62    0.88
  -7  -2  -5    3.61    1.00
  -7  -2  -5    1.29    0.97
  -7  -2  -5    4.14    1.96
   7   2   5    4.98    1.64
   7   2   5    3.82    2.14
   9  -3  -5   -1.36    1.05
   9  -3  -5    0.83    0.92
   9  -3  -5    2.01    1.09
   9  -3  -5    1.00    1.45
  -9   3   5    2.07    1.19
  -9   3   5    1.53    1.08
   8  -3  -5   11.33    1.84
   8  -3  -5   14.01    2.68
   8  -3  -5   13.44    2.16
   8  -3  -5   12.39    2.42
  -8   3   5   16.10    2.37
   7  -3  -5   26.53    3.65
   7  -3  -5   24.22    1.74
   7  -3  -5   28.13    2.76
   7  -3  -5   21.25    2.15
  -7   3   5   24.04    2.24
  -7   3   5   24.83    2.49
   6  -3  -5    3.39    1.10
   6  -3  -5    7.56    1.20
   6  -3  -5    6.29    1.46
  -6   3   5    7.92    1.73
  -6   3   5    6.35    1.31
   5  -3  -5    3.47    0.83
   5  -3  -5    3.72    1.11
   5  -3  -5    3.42    1.10
   5  -3  -5    2.85    1.04
  -5   3   5    1.77    0.94
  -5   3   5    1.94    1.00
   4  -3  -5    0.92    0.67
   4  -3  -5   -0.45    0.40
   4  -3  -5    0.16    0.50
   4  -3  -5    0.12    0.67
   4  -3  -5    0.74    0.69
   4  -3  -5   -1.06    0.49
  -4   3   5    0.30    0.65
  -4   3   5    0.58    0.51
  -4   3   5    0.39    0.66
   3  -3  -5   77.09    2.98
   3  -3  -5   80.56    3.60
   3  -3  -5   82.00    2.76
   3  -3  -5   85.84    3.51
   3  -3  -5   81.60    3.34
   3  -3  -5   74.55    3.25
  -3   3   5   80.34    3.31
  -3   3   5   74.83    3.52
  -3   3   5   75.84    3.31
  -3   3   5   78.70    2.69
   2  -3  -5   21.55    1.74
   2  -3  -5   18.24    1.66
   2  -3  -5   18.65    1.55
   2  -3  -5   17.88    1.45
   2  -3  -5   20.35    1.07
   2  -3  -5   20.76    1.75
  -2   3   5   18.27    1.52
  -2   3   5   17.28    1.54
  -2   3   5   20.41    1.82
  -2   3   5   17.82    1.51
   1  -3  -5   11.03    1.38
   1  -3  -5   11.70    1.68
   1  -3  -5   13.47    1.31
   1  -3  -5   13.97    2.09
   1  -3  -5   12.84    1.23
  -1   3   5   11.73    0.57
  -1   3   5   11.77    1.65
  -1   3   5   14.38    1.81
  -1   3   5   12.14    1.25
   0  -3  -5   24.77    1.69
   0  -3  -5   27.93    1.66
   0  -3  -5   25.59    1.66
   0  -3  -5   29.40    2.21
   0  -3  -5   23.18    1.99
   0   3   5   23.41    1.85
   0   3   5   26.27    1.64
   0   3   5   22.94    1.73
   0   3   5   30.19    2.31
  -1  -3  -5   12.92    1.27
  -1  -3  -5   13.94    1.20
  -1  -3  -5   13.09    1.97
  -1  -3  -5   12.78    1.54
   1   3   5   10.54    1.32
   1   3   5   12.58    1.82
   1   3   5   13.82    2.34
   1   3   5   11.12    1.53
   1   3   5   12.97    1.06
   1   3   5   11.58    0.86
  -2  -3  -5    1.13    0.68
  -2  -3  -5    0.81    0.53
  -2  -3  -5    0.52    0.57
  -2  -3  -5    0.11    0.42
   2   3   5    1.73    0.87
   2   3   5    1.18    0.72
  -3  -3  -5    9.88    1.21
  -3  -3  -5   10.91    2.01
  -3  -3  -5    8.50    1.37
  -3  -3  -5    9.49    0.75
  -3  -3  -5    7.18    1.07
  -3  -3  -5    8.49    1.02
   3   3   5    6.91    1.31
   3   3   5    7.70    1.83
   3   3   5    8.11    0.61
  -4  -3  -5   12.23    1.16
  -4  -3  -5    9.86    0.99
  -4  -3  -5   12.86    1.30
  -4  -3  -5    9.57    1.94
  -4  -3  -5   13.92    1.63
   4   3   5    8.57    2.12
   4   3   5   12.90    1.57
  -5  -3  -5    0.44    0.57
  -5  -3  -5    0.17    0.79
  -5  -3  -5   -0.31    0.58
  -5  -3  -5   -0.72    0.70
  -5  -3  -5    0.12    0.72
  -5  -3  -5    0.16    0.48
   5   3   5    1.08    1.45
   5   3   5    0.75    0.71
  -6  -3  -5    0.42    1.07
  -6  -3  -5    0.96    0.83
  -6  -3  -5    0.15    0.55
  -6  -3  -5   -0.25    0.52
   6   3   5    0.03    1.33
   6   3   5    0.40    1.40
   9  -4  -5   -0.19    1.21
   9  -4  -5    1.96    1.15
   9  -4  -5    1.61    1.30
   9  -4  -5   -0.74    1.39
  -9   4   5    1.15    1.04
  -9   4   5    3.21    1.51
  -9   4   5    1.40    1.34
   8  -4  -5    7.53    1.39
   8  -4  -5    9.01    2.03
   8  -4  -5    7.15    2.21
   8  -4  -5    7.64    1.86
  -8   4   5   10.76    2.14
  -8   4   5    9.60    1.92
   7  -4  -5    3.59    1.16
   7  -4  -5    4.36    1.43
  -7   4   5    1.80    0.99
  -7   4   5    5.14    1.68
   6  -4  -5    2.76    1.18
   6  -4  -5    4.61    1.18
  -6   4   5    5.12    1.25
  -6   4   5    4.17    1.35
   5  -4  -5    6.36    1.48
   5  -4  -5    9.32    1.63
   5  -4  -5    4.34    1.46
  -5   4   5    5.33    1.13
  -5   4   5    5.08    1.33
   4  -4  -5   38.41    2.44
   4  -4  -5   36.16    2.52
   4  -4  -5   35.26    2.54
   4  -4  -5   35.50    2.48
   4  -4  -5   38.25    2.10
  -4   4   5   39.41    2.59
  -4   4   5   41.62    2.64
  -4   4   5   39.20    2.18
   3  -4  -5    0.19    0.35
   3  -4  -5   -0.11    0.55
   3  -4  -5   -0.16    0.53
   3  -4  -5    0.87    0.59
  -3   4   5    0.88    0.66
  -3   4   5    0.12    0.56
  -3   4   5   -0.11    0.66
  -3   4   5    0.63    0.52
   2  -4  -5   73.89    2.22
   2  -4  -5   74.66    3.28
   2  -4  -5   70.38    3.42
   2  -4  -5   70.24    3.51
   2  -4  -5   72.98    3.14
  -2   4   5   70.98    3.39
  -2   4   5   76.45    2.32
   1  -4  -5   -0.10    0.56
   1  -4  -5    0.07    0.54
  -1   4   5    0.01    0.33
  -1   4   5    1.52    0.57
  -1   4   5    0.50    0.52
  -1   4   5   -0.40    0.60
   0  -4  -5    4.79    1.21
   0  -4  -5    4.89    1.02
   0  -4  -5    4.06    0.88
   0   4   5    2.78    0.95
   0   4   5    3.53    0.77
   0   4   5    3.68    1.04
  -1  -4  -5    1.11    0.62
  -1  -4  -5    1.48    0.54
  -1  -4  -5    1.57    0.86
   1   4   5    1.12    0.48
   1   4   5   -0.02    0.52
   1   4   5    0.76    0.74
   1   4   5    1.57    0.57
  -2  -4  -5   13.32    1.25
  -2  -4  -5   17.10    1.34
  -2  -4  -5   19.10    2.47
   2   4   5   10.36    1.05
   2   4   5   14.59    0.87
   2   4   5   14.43    2.42
   2   4   5   13.71    2.24
  -3  -4  -5   -0.54    0.77
  -3  -4  -5    0.04    0.38
  -3  -4  -5   -0.48    0.56
  -3  -4  -5   -0.13    0.39
   3   4   5   -0.13    0.75
   3   4   5   -1.31    0.59
  -4  -4  -5   -0.37    0.87
  -4  -4  -5   -0.03    0.46
  -4  -4  -5   -0.28    0.41
  -4  -4  -5   -0.02    0.41
   4   4   5   -0.54    0.60
   4   4   5   -0.77    0.74
  -5  -4  -5    9.67    1.16
  -5  -4  -5    7.70    1.09
  -5  -4  -5    9.26    1.17
  -5  -4  -5    9.25    1.65
  -5  -4  -5    7.37    2.07
   5   4   5   10.61    1.75
   5   4   5   10.57    2.42
  -6  -4  -5    8.37    2.21
   6   4   5    6.26    2.22
   9  -5  -5    8.06    2.27
   9  -5  -5    5.02    1.81
   9  -5  -5    3.94    1.67
  -9   5   5    5.33    1.61
  -9   5   5    5.01    1.73
  -9   5   5    7.58    1.63
   8  -5  -5   -0.69    1.13
   8  -5  -5    1.62    1.25
   8  -5  -5    0.10    0.97
  -8   5   5    0.75    1.02
  -8   5   5    0.80    0.91
  -8   5   5    0.95    1.12
   7  -5  -5    7.78    1.81
   7  -5  -5    8.06    1.79
  -7   5   5    4.50    1.45
  -7   5   5    8.27    1.95
  -7   5   5    6.04    1.66
   6  -5  -5    4.66    1.30
   6  -5  -5    3.02    1.18
  -6   5   5    4.82    1.36
  -6   5   5    2.16    1.01
  -6   5   5    3.48    1.12
   5  -5  -5    2.37    1.22
   5  -5  -5    4.79    1.33
   5  -5  -5    3.81    1.14
  -5   5   5    4.38    1.33
  -5   5   5    4.24    1.34
  -5   5   5    4.03    1.08
   4  -5  -5    5.97    1.45
   4  -5  -5    5.46    1.14
   4  -5  -5    4.51    1.26
   4  -5  -5    6.38    1.32
  -4   5   5    6.37    1.27
  -4   5   5    9.09    1.67
  -4   5   5    8.68    1.65
   3  -5  -5   12.74    1.88
   3  -5  -5   12.95    1.91
   3  -5  -5   11.88    1.15
  -3   5   5   13.15    1.24
  -3   5   5   13.07    1.90
  -3   5   5   14.19    2.06
   2  -5  -5   14.65    1.02
   2  -5  -5   16.82    1.58
   2  -5  -5   17.78    2.53
   2  -5  -5   14.90    1.94
  -2   5   5   17.69    1.15
  -2   5   5   15.77    2.14
  -2   5   5   16.60    1.61
  -2   5   5   17.32    1.65
   1  -5  -5    0.37    0.25
   1  -5  -5    0.65    0.59
   1  -5  -5    0.71    0.73
  -1   5   5    0.34    0.62
  -1   5   5    0.42    0.85
  -1   5   5    1.08    0.59
   0  -5  -5   10.19    2.12
   0  -5  -5    8.96    1.32
   0  -5  -5    9.83    1.48
   0   5   5    8.27    1.60
   0   5   5   10.14    1.40
   0   5   5    7.21    1.04
  -1  -5  -5   16.57    1.40
  -1  -5  -5   16.88    1.56
  -1  -5  -5   16.64    2.30
   1   5   5   16.09    1.45
   1   5   5   13.42    1.07
   1   5   5   14.92    2.14
  -2  -5  -5   15.89    1.42
  -2  -5  -5   15.88    1.37
  -2  -5  -5   18.22    2.58
   2   5   5   16.22    2.46
   2   5   5   15.48    1.41
   2   5   5   17.53    2.28
  -3  -5  -5    3.14    0.76
  -3  -5  -5    3.18    1.08
  -3  -5  -5    3.82    1.41
  -3  -5  -5    3.34    0.78
  -3  -5  -5    2.88    0.26
   3   5   5    3.92    1.22
   3   5   5    2.96    1.46
  -4  -5  -5   -0.06    0.45
  -4  -5  -5   -0.87    0.89
  -4  -5  -5   -1.18    0.90
  -4  -5  -5   -0.05    0.44
   4   5   5   -0.94    0.89
   4   5   5   -0.43    0.66
  -5  -5  -5   -1.21    1.18
  -5  -5  -5    0.16    0.51
  -5  -5  -5    0.47    0.78
   5   5   5    0.83    1.04
   8  -6  -5    0.68    1.56
   8  -6  -5    0.24    1.24
   8  -6  -5    0.37    1.13
  -8   6   5    0.06    1.13
  -8   6   5    1.86    1.23
   7  -6  -5    0.53    0.72
   7  -6  -5    1.46    1.04
  -7   6   5    1.52    0.80
  -7   6   5    0.79    1.04
  -7   6   5    0.19    1.09
   6  -6  -5   35.86    2.92
   6  -6  -5   33.82    2.47
  -6   6   5   36.69    2.72
  -6   6   5   28.91    2.67
  -6   6   5   35.74    3.08
   5  -6  -5   14.66    1.84
   5  -6  -5   12.55    2.08
   5  -6  -5   16.16    2.30
  -5   6   5   14.04    2.00
  -5   6   5   11.65    2.11
  -5   6   5   12.14    2.15
   4  -6  -5    1.33    0.76
   4  -6  -5    2.62    0.97
   4  -6  -5    2.86    1.15
   4  -6  -5    4.34    1.25
  -4   6   5    1.67    1.03
  -4   6   5    3.05    0.98
  -4   6   5    2.95    1.09
   3  -6  -5    3.93    1.20
   3  -6  -5    2.89    0.74
   3  -6  -5    3.61    1.19
   3  -6  -5    4.29    1.23
  -3   6   5    3.64    0.93
  -3   6   5    1.24    0.97
  -3   6   5    4.01    1.29
   2  -6  -5    1.24    0.66
   2  -6  -5   -0.41    0.51
   2  -6  -5    0.21    0.44
   2  -6  -5    0.70    0.89
  -2   6   5    0.83    0.69
  -2   6   5    0.24    0.70
  -2   6   5    0.20    0.81
  -2   6   5    0.20    0.40
   1  -6  -5   10.14    1.72
   1  -6  -5    8.63    1.65
   1  -6  -5   10.68    1.61
  -1   6   5    8.62    1.72
   0  -6  -5    0.65    0.60
   0  -6  -5    1.18    0.66
   0  -6  -5    0.40    0.96
   0   6   5    0.33    0.79
   0   6   5    0.69    0.56
   0   6   5   -0.54    0.76
  -1  -6  -5    7.66    1.68
  -1  -6  -5    8.93    1.31
  -1  -6  -5    6.68    1.24
   1   6   5    6.92    0.91
   1   6   5    9.21    1.45
   1   6   5    8.19    1.64
  -2  -6  -5   14.03    2.26
  -2  -6  -5   13.50    1.30
  -2  -6  -5   12.17    1.25
   2   6   5   10.52    1.69
   2   6   5   10.33    1.90
  -3  -6  -5    4.68    1.51
  -3  -6  -5    6.08    0.94
  -3  -6  -5    5.14    0.90
   3   6   5    8.76    1.72
  -4  -6  -5    8.20    0.84
   4   6   5    7.02    2.03
   4   6   5    6.91    1.59
   8  -7  -5    0.88    1.25
   8  -7  -5    0.47    0.94
  -8   7   5   -1.42    1.07
  -8   7   5   -0.80    1.26
  -8   7   5   -0.65    1.03
   7  -7  -5    0.79    0.90
   7  -7  -5   -1.21    0.90
  -7   7   5    0.54    1.09
  -7   7   5   -2.35    0.93
   6  -7  -5    6.09    1.70
   6  -7  -5    6.74    1.34
  -6   7   5    7.50    2.07
  -6   7   5    6.05    1.58
  -6   7   5   10.06    1.95
   5  -7  -5    9.12    1.72
   5  -7  -5   11.50    2.15
  -5   7   5    8.57    1.79
  -5   7   5    9.27    2.00
  -5   7   5   10.86    1.76
   4  -7  -5    8.66    1.80
   4  -7  -5   10.31    1.87
  -4   7   5    9.55    1.80
   3  -7  -5    0.22    0.75
   3  -7  -5    0.03    0.90
   3  -7  -5    2.06    1.03
   3  -7  -5   -0.83    0.55
  -3   7   5    0.75    0.81
  -3   7   5    0.22    0.47
  -3   7   5   -0.34    0.77
  -3   7   5    0.22    0.99
   2  -7  -5   15.91    2.05
   2  -7  -5   13.18    1.96
   2  -7  -5   20.55    2.03
   2  -7  -5   17.81    1.27
  -2   7   5   19.35    2.48
  -2   7   5   17.20    2.58
  -2   7   5   16.65    2.27
   1  -7  -5    0.02    0.67
   1  -7  -5    0.85    0.41
   1  -7  -5    1.62    0.92
   1  -7  -5    0.89    0.83
  -1   7   5    0.50    0.72
  -1   7   5   -0.30    0.77
   0  -7  -5    6.54    1.35
   0  -7  -5    7.63    1.37
   0  -7  -5    5.51    1.53
   0   7   5    3.28    0.86
   0   7   5    4.81    1.58
   0   7   5    4.83    1.22
  -1  -7  -5    5.82    1.49
  -1  -7  -5    5.11    1.12
  -1  -7  -5    9.30    1.45
   1   7   5    9.79    1.91
   1   7   5    7.16    1.55
  -2  -7  -5    0.75    1.16
  -2  -7  -5    1.52    0.64
   2   7   5    0.14    0.90
  -3  -7  -5    0.20    0.51
  -3  -7  -5   -0.22    0.53
  -3  -7  -5   -0.24    0.97
   3   7   5   -0.07    0.92
   3   7   5    0.98    0.92
  -4  -7  -5    0.29    0.34
  -4  -7  -5   -0.65    1.22
  -4  -7  -5    0.29    0.34
   4   7   5    0.08    1.07
   7  -8  -5   -0.37    0.94
   7  -8  -5    1.88    1.52
  -7   8   5    0.18    1.08
  -7   8   5    2.47    1.06
  -7   8   5    0.39    1.53
   6  -8  -5    8.42    2.04
  -6   8   5   16.53    2.72
  -6   8   5   11.88    2.07
  -6   8   5   12.52    2.43
   5  -8  -5    1.84    1.28
  -5   8   5   -0.80    0.59
  -5   8   5    1.72    1.08
  -5   8   5   -0.33    1.15
  -5   8   5   -0.36    1.02
   4  -8  -5    0.56    0.72
   4  -8  -5   -0.42    0.96
   4  -8  -5    0.74    0.67
  -4   8   5   -1.16    0.79
  -4   8   5   -0.70    1.17
  -4   8   5    0.74    0.79
  -4   8   5    0.64    1.14
   3  -8  -5    5.06    1.14
   3  -8  -5    8.18    1.70
   3  -8  -5    3.70    1.08
   3  -8  -5    7.72    1.86
   3  -8  -5    6.80    1.54
  -3   8   5    4.03    1.45
  -3   8   5    8.24    1.94
  -3   8   5    5.37    1.10
  -3   8   5    6.38    1.55
   2  -8  -5    1.31    0.75
   2  -8  -5    2.57    1.13
   2  -8  -5    1.42    0.73
   2  -8  -5    2.51    1.23
  -2   8   5    2.34    1.22
  -2   8   5    4.63    1.16
  -2   8   5    3.42    1.13
   1  -8  -5    8.93    1.80
   1  -8  -5    6.54    0.74
   1  -8  -5    7.54    1.45
   1  -8  -5    6.94    1.34
  -1   8   5    7.84    1.62
  -1   8   5    7.13    1.83
   0  -8  -5    2.74    1.04
   0  -8  -5    1.73    1.08
   0  -8  -5    1.30    0.86
   0   8   5    2.01    0.98
   0   8   5   -1.00    0.83
   0   8   5    2.70    1.27
  -1  -8  -5    1.62    0.98
  -1  -8  -5    1.26    0.79
   1   8   5   -0.52    0.88
   1   8   5   -0.52    0.83
  -2  -8  -5    7.91    1.82
  -2  -8  -5    7.08    1.14
  -2  -8  -5    8.77    1.23
   2   8   5    7.66    1.60
   2   8   5    8.43    2.01
   6  -9  -5   10.62    2.23
  -6   9   5    6.37    1.92
  -6   9   5    6.62    2.04
  -6   9   5    5.58    1.87
   5  -9  -5    5.46    1.60
  -5   9   5    4.78    1.81
  -5   9   5    7.19    2.31
  -5   9   5    6.62    1.62
  -5   9   5    7.77    2.13
   4  -9  -5   -0.90    0.89
   4  -9  -5   -1.06    0.81
  -4   9   5   -1.41    0.86
  -4   9   5    0.51    0.92
  -4   9   5    2.39    1.33
  -4   9   5    1.69    1.31
   3  -9  -5   13.35    0.88
   3  -9  -5   13.01    2.04
   3  -9  -5    9.80    1.99
  -3   9   5   10.09    2.26
  -3   9   5   11.47    2.12
   2  -9  -5    4.40    1.30
   2  -9  -5    7.10    1.61
  -2   9   5    4.04    1.40
  -2   9   5    8.16    1.99
   1  -9  -5    2.18    1.12
   1  -9  -5    2.39    1.15
  -1   9   5    1.76    1.23
  -1   9   5    3.31    1.23
   0  -9  -5    1.96    1.20
   0  -9  -5    1.80    0.92
   0   9   5    0.63    1.47
   0   9   5    0.78    1.22
  -1  -9  -5   -1.84    0.95
  -1  -9  -5    1.97    0.80
   1   9   5   -1.64    1.03
   1   9   5   -1.72    1.02
   3 -10  -5   -0.61    1.01
   3 -10  -5   -0.28    0.78
  -3  10   5    2.12    1.46
  -3  10   5    1.54    1.21
   2 -10  -5   -0.28    1.04
   2 -10  -5    2.64    1.23
  -2  10   5    1.13    1.19
  -2  10   5    2.74    1.51
   1  11  -6    9.19    2.33
  -1 -11   6    4.19    1.37
  -1 -11   6    8.18    1.71
   0  11  -6    5.74    1.83
   0 -11   6    6.14    1.76
   0 -11   6    6.31    1.55
  -1  11  -6    3.95    1.61
   1 -11   6    1.52    1.31
   1 -11   6    2.60    1.22
  -2  11  -6    5.23    1.81
  -2  11  -6    0.62    1.77
   2 -11   6    2.16    1.34
  -3  11  -6    0.11    1.60
  -3  11  -6    2.77    1.49
   3 -11   6    0.65    0.83
   3 -11   6    1.55    1.34
   3  10  -6    1.69    1.24
  -3 -10   6    2.09    0.97
  -3 -10   6    2.11    1.33
   2  10  -6    5.60    1.33
   2  10  -6    9.87    2.02
  -2 -10   6    9.73    1.59
  -2 -10   6    6.76    1.84
  -2 -10   6    7.22    1.59
   1  10  -6   -0.33    0.90
   1  10  -6   -1.36    1.44
  -1 -10   6    1.02    0.93
  -1 -10   6    1.96    1.16
  -1 -10   6    1.44    0.96
   0  10  -6    3.06    1.38
   0  10  -6    1.42    0.64
   0 -10   6    1.69    1.08
   0 -10   6    3.46    1.14
   0 -10   6    1.79    1.15
  -1  10  -6    2.99    1.27
  -1  10  -6    3.98    1.39
   1 -10   6    2.44    1.08
   1 -10   6    1.39    1.35
   1 -10   6    0.74    1.06
  -2  10  -6   -0.76    1.08
  -2  10  -6   -0.63    0.86
   2 -10   6    1.38    1.12
  -3  10  -6    6.90    1.96
  -3  10  -6    8.55    2.14
   3 -10   6    5.91    1.10
   3 -10   6    6.57    1.78
   3 -10   6    7.19    1.81
  -4  10  -6    5.88    1.01
  -4  10  -6    4.23    1.73
  -4  10  -6    4.68    1.96
  -4  10  -6    6.79    2.06
   4 -10   6    6.65    1.78
   4 -10   6    6.28    1.91
  -5  10  -6    3.75    1.51
  -5  10  -6   -0.23    1.56
  -5  10  -6   -2.22    0.85
   5 -10   6    0.79    1.19
   5 -10   6    2.35    1.49
   5 -10   6    3.76    1.47
   5   9  -6   -2.72    1.56
   5   9  -6   -0.77    0.59
  -5  -9   6    0.01    0.55
  -5  -9   6    0.31    0.77
  -5  -9   6    1.40    1.00
   4   9  -6    0.57    1.26
   4   9  -6    0.92    1.06
  -4  -9   6    2.49    0.78
  -4  -9   6    0.29    0.83
  -4  -9   6    1.35    1.13
   3   9  -6    1.63    1.17
   3   9  -6    1.30    1.36
  -3  -9   6   -0.42    0.86
  -3  -9   6   -0.78    1.19
  -3  -9   6    2.64    1.04
   2   9  -6   -0.23    0.85
   2   9  -6   -0.50    0.89
   2   9  -6    1.00    0.75
  -2  -9   6    0.91    0.66
  -2  -9   6    0.14    0.72
  -2  -9   6    0.63    0.83
   1   9  -6    1.62    1.06
   1   9  -6    2.40    0.84
  -1  -9   6   -0.40    0.81
   0   9  -6    5.63    1.33
   0   9  -6    1.49    1.27
   0  -9   6    1.06    0.90
   0  -9   6    3.10    0.96
   0  -9   6    3.09    1.32
  -1   9  -6    5.07    0.90
  -1   9  -6    5.84    1.68
  -1   9  -6    3.16    1.40
   1  -9   6    4.00    1.39
   1  -9   6    3.59    1.25
   1  -9   6    6.51    1.64
  -2   9  -6    4.50    1.57
  -2   9  -6    5.53    0.81
  -2   9  -6    7.94    0.78
  -2   9  -6    6.06    1.63
   2  -9   6   10.26    1.93
   2  -9   6    8.92    1.87
  -3   9  -6    2.07    0.63
  -3   9  -6    3.22    0.71
  -3   9  -6    4.33    1.64
  -3   9  -6    1.08    0.62
  -3   9  -6    1.96    1.18
  -3   9  -6    3.83    1.84
   3  -9   6    2.95    0.95
   3  -9   6    3.96    1.38
   3  -9   6    3.85    1.42
  -4   9  -6    1.83    1.27
  -4   9  -6    3.11    1.44
  -4   9  -6    4.22    1.55
  -4   9  -6    2.63    0.95
   4  -9   6    2.31    1.09
   4  -9   6    4.93    1.63
  -5   9  -6    5.04    1.58
  -5   9  -6    3.66    1.57
  -5   9  -6    3.02    1.68
   5  -9   6    3.48    1.58
   5  -9   6    4.46    1.31
   5  -9   6    5.14    1.53
  -6   9  -6    3.90    1.55
  -6   9  -6    2.62    1.63
  -6   9  -6    4.60    1.83
  -6   9  -6    4.97    1.88
   6  -9   6    0.43    1.28
   6  -9   6    0.85    1.06
   6  -9   6    2.73    1.51
   6   8  -6   -2.41    1.17
  -6  -8   6    1.26    0.58
  -6  -8   6    0.59    1.05
  -6  -8   6    2.08    1.22
  -6  -8   6    2.33    1.09
   5   8  -6    5.12    1.93
   5   8  -6    5.30    1.82
  -5  -8   6    4.96    1.41
  -5  -8   6    5.34    1.03
  -5  -8   6    7.91    1.30
  -5  -8   6    7.12    1.13
   4   8  -6    9.91    2.04
   4   8  -6    9.81    2.22
  -4  -8   6    9.81    0.90
  -4  -8   6    8.77    1.33
  -4  -8   6    9.33    2.10
   3   8  -6   15.34    2.39
  -3  -8   6   20.60    2.62
  -3  -8   6   13.40    1.69
  -3  -8   6   14.29    1.77
   2   8  -6    0.81    1.09
   2   8  -6    2.20    1.07
  -2  -8   6    0.84    0.83
  -2  -8   6    0.31    0.78
  -2  -8   6    2.44    0.93
   1   8  -6    0.71    0.62
   1   8  -6    0.25    1.07
  -1  -8   6    1.21    1.00
  -1  -8   6    0.50    0.91
  -1  -8   6    1.09    0.70
   0   8  -6   35.02    2.03
   0   8  -6   41.45    3.14
   0  -8   6   35.06    2.60
   0  -8   6   34.03    2.71
   0  -8   6   42.85    2.77
  -1   8  -6   29.44    2.56
  -1   8  -6   29.01    2.61
   1  -8   6   27.96    2.51
   1  -8   6   34.46    2.72
   1  -8   6   33.10    2.65
  -2   8  -6    5.63    1.61
  -2   8  -6    4.80    1.52
  -2   8  -6    2.82    0.92
   2  -8   6    5.59    1.44
   2  -8   6    6.64    1.63
  -3   8  -6    1.31    1.07
  -3   8  -6   -0.12    0.81
  -3   8  -6    0.48    0.62
  -3   8  -6   -0.63    0.78
   3  -8   6    1.17    0.91
   3  -8   6    1.89    0.80
   3  -8   6    0.12    0.74
  -4   8  -6   -0.25    0.82
  -4   8  -6    1.24    0.85
  -4   8  -6    0.49    0.77
   4  -8   6    0.62    1.02
   4  -8   6    1.35    0.92
  -5   8  -6    2.79    1.30
  -5   8  -6    3.43    1.24
  -5   8  -6    1.30    1.11
  -5   8  -6    3.90    1.59
   5  -8   6    2.98    1.48
   5  -8   6    1.90    0.88
   5  -8   6    0.25    0.87
  -6   8  -6    4.02    1.76
  -6   8  -6    4.39    1.94
  -6   8  -6    7.25    1.87
   6  -8   6    5.66    1.42
   6  -8   6    4.06    1.52
   6  -8   6    3.98    1.50
  -7   8  -6    5.09    1.77
  -7   8  -6    0.92    1.35
  -7   8  -6    2.99    1.52
  -7   8  -6    3.54    1.46
   7  -8   6    2.23    1.03
   7  -8   6    4.38    1.90
   7  -8   6    3.35    1.80
   7  -8   6    5.15    1.48
   6   7  -6    0.90    1.62
  -6  -7   6    0.04    1.10
  -6  -7   6    1.39    1.07
  -6  -7   6   -1.31    0.80
  -6  -7   6    0.91    0.59
   5   7  -6    8.52    2.16
  -5  -7   6    4.55    1.35
  -5  -7   6    2.97    1.22
  -5  -7   6    7.77    1.18
  -5  -7   6    6.29    1.16
  -5  -7   6    3.73    1.17
   4   7  -6   -0.06    1.23
   4   7  -6    1.83    1.08
  -4  -7   6    2.43    1.06
  -4  -7   6    1.39    0.79
  -4  -7   6    1.27    0.67
  -4  -7   6    1.53    1.01
  -4  -7   6    3.11    0.80
   3   7  -6    0.33    0.55
   3   7  -6    0.72    0.78
   3   7  -6    1.02    1.00
  -3  -7   6   -0.03    0.80
  -3  -7   6    0.97    0.69
  -3  -7   6   -0.19    0.54
  -3  -7   6    2.25    0.89
   2   7  -6    8.98    1.77
   2   7  -6    8.28    1.50
   2   7  -6    8.62    1.29
  -2  -7   6    8.93    1.43
  -2  -7   6   10.83    1.91
  -2  -7   6    8.50    1.37
   1   7  -6    1.16    0.82
   1   7  -6    3.50    1.34
   1   7  -6    2.21    0.80
  -1  -7   6    2.45    1.02
  -1  -7   6    2.16    0.88
   0   7  -6    9.61    1.88
   0   7  -6    8.21    1.61
   0   7  -6   10.91    1.48
   0  -7   6   10.50    1.67
   0  -7   6    8.42    1.49
   0  -7   6   12.11    1.71
  -1   7  -6    0.55    0.67
  -1   7  -6    2.18    0.69
  -1   7  -6    0.08    0.81
   1  -7   6    2.49    1.04
   1  -7   6   -0.51    0.82
   1  -7   6   -0.12    0.73
  -2   7  -6   26.28    2.33
  -2   7  -6   25.87    2.45
  -2   7  -6   26.63    1.57
  -2   7  -6   28.68    2.51
   2  -7   6   29.57    2.47
   2  -7   6   28.37    1.60
   2  -7   6   24.45    2.26
  -3   7  -6    1.92    1.02
  -3   7  -6    3.12    1.27
  -3   7  -6    1.33    0.76
   3  -7   6    1.42    0.75
   3  -7   6    1.23    1.07
   3  -7   6    2.40    0.83
   3  -7   6    2.45    0.96
  -4   7  -6    0.70    0.97
  -4   7  -6    1.84    1.06
  -4   7  -6    0.39    1.10
  -4   7  -6    3.60    1.33
   4  -7   6    2.00    1.12
   4  -7   6    1.67    0.86
  -5   7  -6    3.32    1.52
  -5   7  -6    1.90    0.90
  -5   7  -6    1.21    1.01
   5  -7   6    2.35    1.21
   5  -7   6    1.20    1.06
   5  -7   6    1.87    0.86
  -6   7  -6   -0.26    0.85
  -6   7  -6    0.62    0.81
  -6   7  -6   -1.23    1.12
   6  -7   6    0.37    1.05
   6  -7   6    0.08    0.99
   6  -7   6    1.26    0.85
   6  -7   6    2.23    1.04
  -7   7  -6   -0.77    1.10
  -7   7  -6    1.26    1.20
  -7   7  -6   -1.36    1.08
  -7   7  -6    0.08    1.04
   7  -7   6   -0.03    1.14
   7  -7   6   -0.37    1.34
   7  -7   6    0.76    1.53
   7   6  -6    6.75    1.79
   7   6  -6    4.47    2.08
  -7  -6   6    5.12    1.01
  -7  -6   6    6.57    1.68
  -7  -6   6    8.35    1.54
  -7  -6   6    5.46    0.98
   6   6  -6    3.56    1.48
   6   6  -6    2.57    1.68
  -6  -6   6    2.83    1.38
  -6  -6   6    3.11    1.30
  -6  -6   6    0.64    1.03
   5   6  -6   10.43    2.37
   5   6  -6    9.57    1.56
  -5  -6   6    8.16    1.30
  -5  -6   6   11.53    1.80
  -5  -6   6    9.70    1.36
  -5  -6   6    8.42    1.56
   4   6  -6   25.61    2.52
   4   6  -6   21.94    2.21
   4   6  -6   23.69    1.27
   4   6  -6   28.47    1.82
  -4  -6   6   23.55    1.79
  -4  -6   6   26.83    1.85
  -4  -6   6   32.06    2.41
  -4  -6   6   25.56    1.85
  -4  -6   6   23.71    1.83
   3   6  -6   41.85    2.92
   3   6  -6   35.28    2.68
   3   6  -6   37.56    1.91
  -3  -6   6   36.53    2.20
  -3  -6   6   39.21    2.27
  -3  -6   6   36.92    2.17
  -3  -6   6   39.47    2.60
  -3  -6   6   37.04    1.78
   2   6  -6    4.32    1.24
   2   6  -6    6.72    1.59
  -2  -6   6    6.01    1.53
  -2  -6   6    5.98    1.21
   1   6  -6   43.10    2.77
   1   6  -6   40.85    2.37
   1   6  -6   44.04    2.55
  -1  -6   6   40.29    2.44
  -1  -6   6   41.46    2.63
  -1  -6   6   40.35    2.45
   0   6  -6   60.75    3.61
   0   6  -6   59.92    3.30
   0  -6   6   56.50    3.05
   0  -6   6   62.99    3.14
   0  -6   6   50.28    2.90
  -1   6  -6    4.01    1.19
  -1   6  -6    4.11    1.11
  -1   6  -6    4.25    1.37
   1  -6   6    4.77    1.15
   1  -6   6    4.97    1.25
   1  -6   6    4.45    0.46
   1  -6   6    4.88    1.23
   1  -6   6    3.98    0.98
  -2   6  -6    3.15    1.00
  -2   6  -6    3.34    1.30
  -2   6  -6    4.62    0.93
  -2   6  -6    3.62    1.28
   2  -6   6    4.37    1.50
   2  -6   6    2.64    0.87
   2  -6   6    2.96    1.10
   2  -6   6    3.48    1.24
   2  -6   6    4.41    0.90
  -3   6  -6   15.78    2.11
  -3   6  -6   14.84    1.57
  -3   6  -6   14.06    2.63
  -3   6  -6   17.89    2.45
   3  -6   6   15.68    1.35
   3  -6   6   15.23    2.19
   3  -6   6   16.85    2.07
   3  -6   6   18.06    1.70
  -4   6  -6    4.47    1.40
  -4   6  -6    6.16    1.64
  -4   6  -6    5.91    1.43
  -4   6  -6    2.50    1.09
   4  -6   6    6.20    1.63
   4  -6   6    6.63    1.34
   4  -6   6    6.68    1.04
  -5   6  -6   24.36    2.42
  -5   6  -6   25.46    3.10
  -5   6  -6   24.86    3.14
  -5   6  -6   26.17    2.42
   5  -6   6   22.66    2.87
   5  -6   6   27.77    2.85
   5  -6   6   26.76    1.88
   5  -6   6   29.38    2.64
  -6   6  -6    5.10    1.65
  -6   6  -6    5.09    1.37
  -6   6  -6    7.56    1.84
  -6   6  -6    3.77    1.46
   6  -6   6    5.42    1.51
   6  -6   6    2.53    1.30
   6  -6   6    3.88    0.94
   6  -6   6    5.01    1.72
  -7   6  -6    4.14    1.52
  -7   6  -6    5.92    1.60
  -7   6  -6    3.20    1.59
  -7   6  -6    3.25    1.46
   7  -6   6    3.48    1.37
   7  -6   6    1.46    1.00
   7  -6   6    2.76    0.80
   7  -6   6    4.83    2.02
   8   5  -6    1.57    1.40
   8   5  -6   -1.66    1.34
  -8  -5   6    0.10    1.20
  -8  -5   6    0.60    0.87
  -8  -5   6    0.13    0.60
   7   5  -6    8.07    2.34
   7   5  -6    9.64    2.15
  -7  -5   6    7.01    1.80
  -7  -5   6    7.47    1.18
  -7  -5   6    5.71    1.23
   6   5  -6    3.70    1.35
  -6  -5   6    2.74    0.95
  -6  -5   6    4.00    1.39
  -6  -5   6    4.51    0.94
   5   5  -6    9.90    0.85
   5   5  -6    8.00    1.51
  -5  -5   6   12.09    1.75
  -5  -5   6    9.11    0.99
  -5  -5   6   10.45    1.42
  -5  -5   6    9.36    1.42
   4   5  -6   13.32    2.05
   4   5  -6   13.43    2.35
   4   5  -6   11.54    1.42
  -4  -5   6   10.01    0.97
  -4  -5   6   10.57    1.59
  -4  -5   6   13.79    1.67
  -4  -5   6   10.77    1.42
  -4  -5   6   13.57    1.60
   3   5  -6  108.86    4.57
   3   5  -6  106.21    3.41
   3   5  -6   99.59    4.30
   3   5  -6  105.77    2.87
  -3  -5   6  111.39    3.95
  -3  -5   6  107.72    3.46
  -3  -5   6  110.33    3.78
  -3  -5   6  106.44    3.28
  -3  -5   6  112.38    4.24
   2   5  -6   60.00    3.14
   2   5  -6   62.16    3.24
  -2  -5   6   60.30    3.03
  -2  -5   6   60.35    2.23
  -2  -5   6   60.40    2.83
  -2  -5   6   67.86    2.94
   1   5  -6   34.04    2.22
   1   5  -6   33.10    1.48
   1   5  -6   31.34    2.62
  -1  -5   6   32.39    1.46
  -1  -5   6   29.91    2.18
  -1  -5   6   32.39    2.12
   0   5  -6   17.10    1.69
   0   5  -6   22.16    1.87
   0  -5   6   17.10    1.64
   0  -5   6   18.20    1.62
   0  -5   6   15.29    1.51
   0  -5   6   17.82    1.58
  -1   5  -6   39.43    2.54
  -1   5  -6   41.09    2.44
  -1   5  -6   40.71    2.01
   1  -5   6   43.86    2.59
   1  -5   6   42.84    2.61
   1  -5   6   40.80    2.19
  -2   5  -6  130.19    4.78
  -2   5  -6  121.80    4.80
  -2   5  -6  120.04    4.01
  -2   5  -6  113.11    4.03
  -2   5  -6  117.95    4.25
   2  -5   6  118.02    4.56
   2  -5   6  114.97    3.60
   2  -5   6  123.80    4.24
   2  -5   6  117.17    4.50
   2  -5   6  122.51    3.74
  -3   5  -6   11.08    1.58
  -3   5  -6   11.83    1.84
  -3   5  -6   16.54    1.59
  -3   5  -6   10.60    1.64
  -3   5  -6   12.53    1.99
   3  -5   6    7.82    1.66
   3  -5   6   11.97    1.00
   3  -5   6   10.89    1.57
   3  -5   6   10.80    1.45
  -4   5  -6   31.32    2.70
  -4   5  -6   37.83    2.87
  -4   5  -6   33.50    2.06
  -4   5  -6   35.60    2.65
  -4   5  -6   34.70    2.77
   4  -5   6   32.47    2.79
   4  -5   6   37.36    2.11
   4  -5   6   43.23    2.90
   4  -5   6   34.17    2.59
  -5   5  -6   24.24    2.13
  -5   5  -6   24.30    2.45
  -5   5  -6   28.74    2.68
  -5   5  -6   23.91    3.09
   5  -5   6   21.88    3.00
   5  -5   6   28.91    2.52
   5  -5   6   25.07    1.66
   5  -5   6   21.44    2.80
  -6   5  -6    6.05    1.81
  -6   5  -6    8.42    1.90
   6  -5   6    5.41    1.42
   6  -5   6    6.55    1.68
   6  -5   6    5.93    0.93
   6  -5   6    6.29    1.49
  -7   5  -6    1.54    1.26
  -7   5  -6    2.15    1.19
  -7   5  -6    1.90    1.30
   7  -5   6    0.74    1.44
   7  -5   6    3.39    1.19
   7  -5   6    1.46    1.34
  -8   5  -6    1.01    1.36
  -8   5  -6    1.32    1.45
  -8   5  -6    4.86    1.81
   8  -5   6    0.58    1.16
   8  -5   6   -0.56    1.12
   8  -5   6   -0.47    2.80
   8   4  -6    0.26    1.38
   8   4  -6    1.79    1.36
  -8  -4   6    0.41    0.80
  -8  -4   6    1.10    0.68
  -8  -4   6    1.63    1.27
  -8  -4   6    0.85    0.94
   7   4  -6    3.28    1.46
   7   4  -6    2.05    1.32
  -7  -4   6    0.58    0.86
  -7  -4   6    1.62    0.76
  -7  -4   6    1.81    1.11
  -7  -4   6    1.73    1.05
   6   4  -6    1.30    0.93
   6   4  -6   -0.26    0.63
   6   4  -6   -0.76    0.46
  -6  -4   6    0.27    0.60
  -6  -4   6   -0.29    0.54
  -6  -4   6   -0.74    0.70
  -6  -4   6   -0.21    0.59
   5   4  -6    1.00    0.87
  -5  -4   6    2.91    0.71
  -5  -4   6    0.68    0.62
  -5  -4   6    1.74    0.78
   4   4  -6   15.08    1.29
   4   4  -6   18.25    2.60
   4   4  -6   16.96    1.42
  -4  -4   6   15.98    0.86
  -4  -4   6   16.44    2.10
  -4  -4   6   16.51    2.07
  -4  -4   6   17.69    1.48
  -4  -4   6   19.87    1.67
   3   4  -6   10.76    1.78
   3   4  -6    9.79    0.91
   3   4  -6    8.18    1.67
   3   4  -6    8.02    1.44
  -3  -4   6    7.57    1.22
  -3  -4   6    8.90    1.24
  -3  -4   6   11.27    1.18
   2   4  -6    7.08    1.25
   2   4  -6    9.61    0.52
   2   4  -6    8.77    1.41
   2   4  -6   10.49    1.36
   2   4  -6    8.50    1.21
   2   4  -6   10.49    1.73
   2   4  -6    8.42    1.07
  -2  -4   6    9.06    1.39
  -2  -4   6   10.14    1.04
  -2  -4   6    9.73    1.54
  -2  -4   6   10.92    1.50
  -2  -4   6    9.68    1.48
   1   4  -6  236.12    5.99
   1   4  -6  220.68    5.84
   1   4  -6  230.20    5.95
   1   4  -6  224.43    5.63
   1   4  -6  233.14    5.14
  -1  -4   6  226.72    5.98
  -1  -4   6  229.07    5.87
  -1  -4   6  226.66    5.10
  -1  -4   6  223.21    5.89
  -1  -4   6  227.26    5.92
  -1  -4   6  238.55    6.24
   0   4  -6   76.43    3.10
   0   4  -6   76.98    3.04
   0   4  -6   76.24    3.11
   0   4  -6   76.39    2.72
   0   4  -6   77.25    3.34
   0  -4   6   80.05    3.27
   0  -4   6   83.40    3.25
   0  -4   6   77.99    2.69
   0  -4   6   73.98    2.99
   0  -4   6   80.51    3.27
   0  -4   6   74.84    3.23
   0  -4   6   83.97    3.08
  -1   4  -6    0.97    0.72
  -1   4  -6    0.60    0.69
  -1   4  -6   -0.25    0.33
  -1   4  -6    0.17    0.52
  -1   4  -6    0.30    0.34
  -1   4  -6    1.04    0.52
   1  -4   6    0.93    0.58
   1  -4   6   -0.30    0.49
   1  -4   6    0.41    0.46
   1  -4   6   -0.04    0.37
   1  -4   6    0.61    0.45
   1  -4   6    0.32    0.52
  -2   4  -6    0.74    0.65
  -2   4  -6   -0.09    0.44
  -2   4  -6   -0.54    0.47
  -2   4  -6    1.29    0.62
  -2   4  -6   -0.03    0.51
  -2   4  -6   -0.86    0.50
  -2   4  -6   -0.26    0.43
   2  -4   6    0.71    0.55
   2  -4   6    0.32    0.67
   2  -4   6    0.38    0.50
   2  -4   6    0.62    0.40
   2  -4   6   -0.13    0.53
   2  -4   6   -0.04    0.50
  -3   4  -6   -0.08    0.57
  -3   4  -6    1.33    1.03
  -3   4  -6    0.85    0.65
  -3   4  -6    0.97    0.86
  -3   4  -6    0.58    0.56
  -3   4  -6    0.67    0.74
   3  -4   6    1.39    0.83
   3  -4   6    0.18    0.58
   3  -4   6    0.68    0.58
   3  -4   6   -0.49    0.57
   3  -4   6    0.54    0.33
  -4   4  -6   28.38    2.28
  -4   4  -6   31.58    2.65
  -4   4  -6   30.92    2.36
  -4   4  -6   24.39    2.41
  -4   4  -6   31.57    2.17
  -4   4  -6   31.87    2.16
   4  -4   6   27.30    1.71
   4  -4   6   29.72    2.70
   4  -4   6   32.37    2.42
  -5   4  -6   53.43    3.52
  -5   4  -6   47.25    2.21
  -5   4  -6   57.23    3.74
  -5   4  -6   53.79    3.37
   5  -4   6   55.21    3.77
   5  -4   6   53.72    2.24
   5  -4   6   49.04    3.13
   5  -4   6   48.92    3.60
  -6   4  -6    4.80    1.47
  -6   4  -6    7.48    1.80
  -6   4  -6    5.66    1.66
  -6   4  -6    3.46    1.39
   6  -4   6    5.72    0.77
   6  -4   6    2.55    1.48
   6  -4   6    6.96    1.55
  -7   4  -6    0.79    1.21
  -7   4  -6    1.74    1.10
  -7   4  -6    1.57    1.12
   7  -4   6    2.12    1.35
   7  -4   6    0.28    1.02
   7  -4   6    0.66    1.01
  -8   4  -6   -1.06    0.98
  -8   4  -6    2.20    1.25
  -8   4  -6    0.66    1.28
   8  -4   6   -2.56    1.35
   8  -4   6    1.36    1.45
   9   3  -6    0.03    1.74
   9   3  -6   -1.78    1.19
  -9  -3   6    0.35    1.13
  -9  -3   6   -0.16    0.84
   8   3  -6   -1.96    0.91
   8   3  -6    0.99    1.11
  -8  -3   6   -1.13    0.81
  -8  -3   6    0.80    0.71
  -8  -3   6    1.83    0.90
   7   3  -6   30.14    3.99
   7   3  -6   25.26    2.59
  -7  -3   6   30.20    2.14
  -7  -3   6   30.28    2.29
  -7  -3   6   33.77    2.39
   6   3  -6    1.00    1.29
   6   3  -6    0.23    0.80
   6   3  -6   -0.53    0.51
  -6  -3   6    0.32    0.55
  -6  -3   6   -0.74    0.80
  -6  -3   6    0.78    0.65
  -6  -3   6    1.26    0.78
   5   3  -6   -0.15    0.69
   5   3  -6    0.03    0.48
   5   3  -6   -0.47    0.51
   5   3  -6    0.12    0.59
  -5  -3   6   -0.22    0.44
  -5  -3   6   -0.23    0.47
  -5  -3   6   -0.20    0.47
  -5  -3   6   -0.01    0.48
   4   3  -6    6.73    1.25
   4   3  -6    8.44    1.73
   4   3  -6    6.99    1.27
   4   3  -6    8.80    1.29
  -4  -3   6    7.73    1.50
  -4  -3   6    9.77    1.50
  -4  -3   6    7.43    1.22
  -4  -3   6    7.36    1.25
   3   3  -6  192.17    4.93
   3   3  -6  192.45    4.51
   3   3  -6  188.64    5.10
   3   3  -6  192.68    5.04
   3   3  -6  197.56    6.20
   3   3  -6  194.21    5.33
  -3  -3   6  195.24    5.24
  -3  -3   6  186.73    5.14
  -3  -3   6  190.42    5.56
  -3  -3   6  184.58    5.23
   2   3  -6   33.19    2.28
   2   3  -6   31.16    1.79
   2   3  -6   33.07    2.01
   2   3  -6   32.03    1.96
   2   3  -6   31.83    2.30
   2   3  -6   34.26    1.89
   2   3  -6   31.31    1.91
  -2  -3   6   29.45    1.75
  -2  -3   6   33.58    2.02
  -2  -3   6   32.21    1.92
  -2  -3   6   34.55    2.07
  -2  -3   6   32.58    1.94
   1   3  -6    2.97    0.50
   1   3  -6    4.95    1.06
   1   3  -6    2.38    0.68
   1   3  -6    4.13    0.89
  -1  -3   6    3.29    0.86
  -1  -3   6    3.64    0.82
  -1  -3   6    3.87    0.88
  -1  -3   6    2.73    0.78
  -1  -3   6    2.29    0.66
   0   3  -6   71.57    2.80
   0   3  -6   71.00    2.62
   0   3  -6   68.67    2.12
   0   3  -6   70.72    3.13
   0   3  -6   75.20    2.97
   0  -3   6   71.33    2.74
   0  -3   6   67.40    2.56
   0  -3   6   68.08    2.74
   0  -3   6   69.83    2.96
   0  -3   6   67.73    2.82
   0  -3   6   69.91    2.80
   0  -3   6   74.02    3.13
  -1   3  -6  101.75    3.11
  -1   3  -6  110.47    4.15
  -1   3  -6  105.56    3.69
  -1   3  -6  108.74    3.84
  -1   3  -6  105.13    3.18
  -1   3  -6  106.53    3.78
  -1   3  -6  104.07    3.47
   1  -3   6  101.16    3.81
   1  -3   6  103.65    4.43
   1  -3   6  106.83    3.64
   1  -3   6  102.37    3.34
   1  -3   6   98.81    3.80
   1  -3   6  113.08    3.99
   1  -3   6  110.51    3.55
  -2   3  -6   -0.65    0.49
  -2   3  -6    0.10    0.40
  -2   3  -6    0.15    0.41
  -2   3  -6    0.55    0.65
  -2   3  -6   -0.52    0.44
  -2   3  -6   -0.15    0.57
  -2   3  -6    0.48    0.47
   2  -3   6   -0.12    0.33
   2  -3   6   -0.23    0.29
   2  -3   6    0.82    0.79
   2  -3   6    0.21    0.53
   2  -3   6    0.32    0.52
   2  -3   6   -0.25    0.42
   2  -3   6   -0.95    0.35
  -3   3  -6    0.92    0.67
  -3   3  -6    3.44    0.77
  -3   3  -6    3.39    0.93
  -3   3  -6    3.69    0.77
  -3   3  -6    0.52    0.85
   3  -3   6    2.07    0.70
   3  -3   6    2.34    0.93
   3  -3   6    1.83    0.81
   3  -3   6    2.89    0.42
   3  -3   6    2.01    0.84
   3  -3   6    2.44    0.98
  -4   3  -6  132.10    4.82
  -4   3  -6  126.18    3.74
  -4   3  -6  125.63    4.78
  -4   3  -6  130.40    5.38
  -4   3  -6  130.31    5.16
   4  -3   6  136.48    3.73
   4  -3   6  130.18    4.78
   4  -3   6  136.86    5.57
   4  -3   6  133.79    5.60
  -5   3  -6   28.69    2.36
  -5   3  -6   32.84    2.94
  -5   3  -6   32.94    2.52
  -5   3  -6   29.52    1.65
  -5   3  -6   35.25    2.83
   5  -3   6   33.75    2.46
   5  -3   6   31.25    1.57
   5  -3   6   37.00    3.15
   5  -3   6   31.71    2.90
  -6   3  -6    0.79    1.03
  -6   3  -6    3.81    1.28
  -6   3  -6    1.80    1.39
  -6   3  -6    2.82    1.07
   6  -3   6    5.48    1.50
   6  -3   6    4.97    1.59
   6  -3   6    2.68    1.58
  -7   3  -6    1.99    1.46
  -7   3  -6    0.20    0.90
   7  -3   6   -0.85    0.84
   7  -3   6    1.22    1.15
   7  -3   6   -1.24    1.21
  -8   3  -6    1.21    1.10
  -8   3  -6    4.40    1.73
  -8   3  -6    0.99    1.14
   8  -3   6   -0.79    1.36
   8  -3   6   -0.95    1.38
   9   2  -6    4.55    2.14
   9   2  -6    4.67    1.71
  -9  -2   6    2.94    0.72
  -9  -2   6    5.19    1.49
  -9  -2   6    4.56    1.44
   8   2  -6   -0.27    0.85
   8   2  -6    3.37    1.63
   8   2  -6    0.72    1.10
  -8  -2   6    0.68    1.03
  -8  -2   6    1.78    1.05
  -8  -2   6    1.58    0.97
  -8  -2   6    1.61    0.65
   7   2  -6    9.16    1.95
   7   2  -6    6.25    1.14
   7   2  -6    8.59    2.10
  -7  -2   6    5.56    1.04
  -7  -2   6    7.66    1.72
  -7  -2   6    8.34    1.53
   6   2  -6   10.73    1.49
   6   2  -6   14.74    2.15
  -6  -2   6   11.15    1.46
  -6  -2   6   13.64    2.10
  -6  -2   6   12.99    1.70
  -6  -2   6   15.65    2.03
   5   2  -6    1.81    0.73
   5   2  -6    2.24    1.06
   5   2  -6    0.80    0.61
  -5  -2   6    0.41    0.78
  -5  -2   6    2.46    0.75
  -5  -2   6    3.40    0.93
  -5  -2   6    2.74    0.95
   4   2  -6   33.87    1.98
   4   2  -6   33.78    1.96
   4   2  -6   36.17    2.16
   4   2  -6   32.57    2.62
   4   2  -6   32.16    2.53
  -4  -2   6   33.68    2.11
  -4  -2   6   31.69    2.23
  -4  -2   6   34.25    1.99
   3   2  -6   38.64    2.54
   3   2  -6   42.06    2.58
   3   2  -6   37.92    2.02
   3   2  -6   39.35    2.25
  -3  -2   6   39.34    2.23
  -3  -2   6   39.00    2.10
  -3  -2   6   39.97    2.26
  -3  -2   6   39.20    2.18
  -3  -2   6   38.24    2.12
   2   2  -6    1.95    0.71
   2   2  -6    2.36    0.77
   2   2  -6    0.87    0.54
   2   2  -6    2.08    0.78
  -2  -2   6    1.50    0.66
  -2  -2   6    1.45    0.63
  -2  -2   6    1.65    0.70
  -2  -2   6    0.90    0.57
  -2  -2   6    1.63    0.36
  -2  -2   6    1.11    0.54
   1   2  -6  227.10    5.62
   1   2  -6  238.05    5.11
   1   2  -6  237.94    5.96
   1   2  -6  233.42    5.55
   1   2  -6  231.65    5.70
  -1  -2   6  239.14    5.20
  -1  -2   6  236.06    5.57
  -1  -2   6  235.89    5.76
  -1  -2   6  233.39    4.96
  -1  -2   6  223.88    5.81
  -1  -2   6  226.82    5.65
   0   2  -6   22.78    1.55
   0   2  -6   22.19    1.45
   0   2  -6   21.30    1.62
   0   2  -6   22.55    1.72
   0   2  -6   24.69    1.88
   0  -2   6   21.63    1.24
   0  -2   6   21.62    1.51
   0  -2   6   25.25    1.72
   0  -2   6   21.30    1.64
   0  -2   6   22.69    1.52
   0  -2   6   21.32    1.52
   0  -2   6   19.82    1.68
  -1   2  -6    0.25    0.48
  -1   2  -6    0.13    0.39
  -1   2  -6    0.03    0.41
  -1   2  -6    0.25    0.55
  -1   2  -6   -0.63    0.42
  -1   2  -6    0.40    0.63
  -1   2  -6    0.55    0.34
   1  -2   6   -0.20    0.49
   1  -2   6   -0.06    0.46
   1  -2   6    0.47    0.44
   1  -2   6    0.26    0.53
   1  -2   6   -0.19    0.20
   1  -2   6    0.71    0.62
  -2   2  -6    7.23    0.86
  -2   2  -6    7.40    1.33
  -2   2  -6    8.89    1.37
  -2   2  -6    6.85    1.34
  -2   2  -6    7.12    1.13
  -2   2  -6    7.92    1.10
  -2   2  -6    8.75    1.58
   2  -2   6    6.92    1.41
   2  -2   6    7.94    1.27
   2  -2   6    7.58    1.08
   2  -2   6    7.99    1.13
   2  -2   6    6.17    1.18
   2  -2   6    6.76    1.37
  -3   2  -6    0.16    0.39
  -3   2  -6    0.75    0.75
  -3   2  -6   -0.18    0.67
  -3   2  -6    0.55    0.43
  -3   2  -6   -0.07    0.56
  -3   2  -6    0.91    0.68
   3  -2   6   -0.12    0.53
   3  -2   6    1.95    0.97
   3  -2   6    0.53    0.46
   3  -2   6    0.42    0.78
   3  -2   6    0.57    0.23
   3  -2   6    0.85    0.61
  -4   2  -6   86.52    4.43
  -4   2  -6   79.14    2.74
  -4   2  -6   78.65    3.55
  -4   2  -6   76.26    3.75
   4  -2   6   78.51    4.33
   4  -2   6   83.57    4.35
   4  -2   6   84.05    3.58
   4  -2   6   80.46    2.67
  -5   2  -6   22.52    2.00
  -5   2  -6   26.66    2.79
  -5   2  -6   20.55    1.37
  -5   2  -6   24.56    2.16
  -5   2  -6   22.32    2.18
   5  -2   6   26.79    2.84
   5  -2   6   23.44    1.29
   5  -2   6   27.01    2.64
   5  -2   6   21.82    1.97
  -6   2  -6   -1.66    1.03
  -6   2  -6   -0.88    0.77
   6  -2   6    1.42    0.85
   6  -2   6   -0.51    0.63
   6  -2   6   -0.75    1.04
  -7   2  -6    2.34    1.13
  -7   2  -6    5.04    1.94
  -7   2  -6    5.36    1.44
   7  -2   6    4.58    1.41
   7  -2   6    5.93    2.08
   7  -2   6    4.47    1.72
  -8   2  -6    0.92    1.53
  -8   2  -6    1.31    1.10
   8  -2   6    3.20    1.74
   8  -2   6    0.44    1.53
   9   1  -6   -1.06    1.27
   9   1  -6   -0.81    1.18
  -9  -1   6    0.16    0.88
  -9  -1   6    1.18    0.95
   8   1  -6   13.84    2.60
   8   1  -6   15.35    2.60
   8   1  -6   14.07    2.73
   8   1  -6   10.93    1.63
  -8  -1   6   17.43    2.36
  -8  -1   6   17.43    2.52
  -8  -1   6   12.86    1.92
  -8  -1   6   15.37    1.31
   7   1  -6    7.95    1.97
   7   1  -6    4.13    1.04
   7   1  -6    5.71    1.55
   7   1  -6    3.78    1.01
  -7  -1   6    6.66    1.02
  -7  -1   6    5.21    1.29
  -7  -1   6    6.92    1.43
  -7  -1   6    4.90    1.45
   6   1  -6    9.70    1.44
   6   1  -6    8.81    1.77
   6   1  -6    5.29    1.94
   6   1  -6    8.61    1.32
  -6  -1   6    8.09    1.53
  -6  -1   6   10.83    1.33
  -6  -1   6    7.03    1.47
  -6  -1   6    6.69    1.35
   5   1  -6   11.94    1.44
   5   1  -6   12.91    1.79
   5   1  -6   10.26    2.01
   5   1  -6    8.96    1.61
  -5  -1   6   10.62    1.31
  -5  -1   6   12.88    1.86
  -5  -1   6    8.71    1.46
  -5  -1   6   11.33    1.61
   4   1  -6   13.62    2.07
   4   1  -6   13.42    1.86
   4   1  -6   15.20    1.48
  -4  -1   6   16.28    2.12
  -4  -1   6   11.64    1.61
  -4  -1   6   13.88    1.28
  -4  -1   6   14.79    1.83
  -4  -1   6   11.87    1.62
  -4  -1   6   15.18    1.60
   3   1  -6   41.29    2.10
   3   1  -6   38.28    2.26
   3   1  -6   38.19    2.08
   3   1  -6   43.72    2.75
  -3  -1   6   36.11    2.54
  -3  -1   6   43.99    2.35
  -3  -1   6   37.63    1.98
  -3  -1   6   39.64    2.21
   2   1  -6    8.10    1.24
   2   1  -6    8.29    1.31
   2   1  -6    8.49    1.16
   2   1  -6   13.15    1.65
  -2  -1   6   10.39    1.39
  -2  -1   6   10.05    1.23
  -2  -1   6    9.74    0.71
  -2  -1   6    9.12    1.24
  -2  -1   6   11.77    1.52
  -2  -1   6   11.50    1.54
   1   1  -6   42.08    2.14
   1   1  -6   39.69    2.19
   1   1  -6   39.79    1.97
   1   1  -6   40.60    2.34
   1   1  -6   42.74    1.83
  -1  -1   6   42.35    2.27
  -1  -1   6   44.27    2.35
  -1  -1   6   37.29    2.10
  -1  -1   6   45.37    2.18
  -1  -1   6   42.50    1.71
   0   1  -6  234.67    6.10
   0   1  -6  229.90    5.75
   0   1  -6  227.08    5.90
   0   1  -6  231.91    5.55
   0   1  -6  229.65    5.38
   0   1  -6  231.20    5.68
   0  -1   6  230.42    5.89
   0  -1   6  226.74    4.93
   0  -1   6  241.67    5.48
   0  -1   6  239.78    5.75
   0  -1   6  237.19    5.99
   0  -1   6  231.03    4.22
   0  -1   6  222.86    5.58
  -1   1  -6   88.71    3.00
  -1   1  -6   90.60    3.53
  -1   1  -6   91.76    3.30
  -1   1  -6   82.58    3.36
  -1   1  -6   84.84    1.74
  -1   1  -6   83.01    3.36
  -1   1  -6   83.17    3.54
   1  -1   6   94.00    3.81
   1  -1   6   89.26    3.57
   1  -1   6   89.70    2.70
   1  -1   6   83.00    2.92
  -2   1  -6   52.86    2.99
  -2   1  -6   50.17    2.19
  -2   1  -6   54.28    1.40
  -2   1  -6   54.39    2.56
  -2   1  -6   51.01    2.86
  -2   1  -6   53.79    2.22
  -2   1  -6   56.64    2.82
  -2   1  -6   51.26    2.87
   2  -1   6   51.48    2.92
   2  -1   6   53.71    2.24
   2  -1   6   52.26    2.49
   2  -1   6   48.03    2.96
   2  -1   6   56.64    2.66
   2  -1   6   49.95    2.07
  -3   1  -6    0.17    0.75
  -3   1  -6    0.85    0.47
  -3   1  -6   -0.03    0.37
  -3   1  -6    0.77    0.76
  -3   1  -6   -0.01    0.44
   3  -1   6   -0.79    0.69
   3  -1   6    0.18    0.42
   3  -1   6    0.15    0.72
   3  -1   6    0.21    0.41
  -4   1  -6   25.67    2.41
  -4   1  -6   35.96    2.15
  -4   1  -6   28.25    1.61
  -4   1  -6   29.52    2.32
  -4   1  -6   29.78    2.08
   4  -1   6   31.45    1.64
   4  -1   6   29.42    2.05
   4  -1   6   31.10    1.96
   4  -1   6   30.30    2.93
   4  -1   6   30.03    2.74
  -5   1  -6    5.18    1.17
  -5   1  -6    4.38    1.46
  -5   1  -6    3.72    0.76
  -5   1  -6    6.80    1.26
  -5   1  -6    5.30    1.29
   5  -1   6    7.81    1.90
   5  -1   6    4.84    1.48
  -6   1  -6    0.01    0.60
  -6   1  -6   -0.04    1.07
  -6   1  -6   -0.78    0.59
  -6   1  -6   -2.40    0.68
   6  -1   6   -0.27    1.32
   6  -1   6    0.25    0.69
  -7   1  -6    3.11    1.21
  -7   1  -6    2.45    1.58
  -7   1  -6    2.41    1.21
   7  -1   6    4.04    1.67
   7  -1   6    1.88    1.49
   9   0  -6   14.18    1.51
   9   0  -6   17.70    3.12
   9   0  -6   16.76    3.22
  -9   0   6   14.79    2.31
  -9   0   6   17.63    2.72
   8   0  -6    1.45    1.00
   8   0  -6    0.62    0.97
   8   0  -6    4.75    1.73
   8   0  -6    1.52    0.59
   8   0  -6    0.82    0.81
  -8   0   6    2.59    1.27
  -8   0   6    1.54    0.90
  -8   0   6    2.80    1.21
   7   0  -6   26.36    2.04
   7   0  -6   29.30    2.82
   7   0  -6   28.69    2.96
   7   0  -6   24.28    2.93
  -7   0   6   22.90    2.26
  -7   0   6   26.39    1.66
  -7   0   6   21.47    2.07
  -7   0   6   28.05    2.38
   6   0  -6   30.33    2.79
   6   0  -6   37.52    2.97
   6   0  -6   36.42    2.38
   6   0  -6   30.57    1.92
  -6   0   6   33.64    2.41
  -6   0   6   33.87    2.62
  -6   0   6   34.68    1.89
  -6   0   6   36.71    2.51
   5   0  -6    7.88    1.54
   5   0  -6    5.09    1.40
   5   0  -6    5.82    0.45
   5   0  -6    7.56    1.53
   5   0  -6    7.30    1.52
   5   0  -6    5.92    1.16
  -5   0   6    7.12    1.34
  -5   0   6    5.30    1.19
  -5   0   6    5.47    1.02
  -5   0   6    5.91    1.25
   4   0  -6    1.04    0.85
   4   0  -6    0.26    0.54
   4   0  -6   -0.12    0.46
   4   0  -6   -0.06    0.44
   4   0  -6    0.70    0.24
  -4   0   6    0.63    0.49
  -4   0   6    0.18    0.55
  -4   0   6   -0.28    0.57
  -4   0   6    1.23    0.69
  -4   0   6   -0.61    0.43
   3   0  -6   23.66    1.93
   3   0  -6   23.75    1.06
   3   0  -6   24.63    1.80
   3   0  -6   19.20    1.42
  -3   0   6   21.91    1.84
  -3   0   6   22.07    1.56
  -3   0   6   24.79    1.82
  -3   0   6   22.05    1.55
  -3   0   6   24.11    1.78
   2   0  -6  126.48    4.32
   2   0  -6  123.47    3.16
   2   0  -6  124.65    4.16
   2   0  -6  128.99    3.82
   2   0  -6  120.58    3.88
  -2   0   6  125.85    3.27
  -2   0   6  123.64    4.25
  -2   0   6  120.37    3.69
  -2   0   6  124.40    4.13
  -2   0   6  124.48    3.37
  -2   0   6  128.37    4.03
   1   0  -6  112.24    3.67
   1   0  -6  110.82    3.79
   1   0  -6  108.37    3.43
   1   0  -6  105.18    3.96
   1   0  -6  106.72    3.27
  -1   0   6  110.18    3.96
  -1   0   6  109.87    3.44
  -1   0   6  108.69    3.45
  -1   0   6  116.33    3.87
  -1   0   6  114.56    3.00
  -1   0   6  111.73    3.65
   0   0  -6  111.32    4.10
   0   0  -6  101.63    4.12
   0   0  -6  102.77    3.70
   0   0  -6  106.10    3.99
   0   0  -6  109.36    3.57
   0   0  -6  107.75    3.39
   0   0   6  109.64    2.71
   0   0   6  105.45    3.73
   0   0   6  103.64    1.90
   0   0   6  105.92    3.64
   0   0   6  107.78    3.92
   0   0   6  107.07    3.38
  -1   0  -6  134.26    4.74
  -1   0  -6  128.31    3.79
  -1   0  -6  135.36    4.32
  -1   0  -6  131.89    4.72
  -1   0  -6  133.96    4.09
   1   0   6  136.99    3.86
   1   0   6  136.07    4.65
   1   0   6  132.09    4.61
   1   0   6  144.35    4.26
   1   0   6  129.21    3.03
   1   0   6  130.86    3.99
  -2   0  -6    0.16    0.37
  -2   0  -6    0.14    0.71
  -2   0  -6    0.50    0.56
  -2   0  -6    0.42    0.65
  -2   0  -6    0.39    0.66
  -2   0  -6    0.52    0.39
  -2   0  -6   -0.22    0.61
   2   0   6    0.68    0.42
   2   0   6    0.42    0.48
   2   0   6    0.25    0.32
   2   0   6    0.05    0.32
  -3   0  -6    8.44    1.47
  -3   0  -6    8.35    0.82
  -3   0  -6    8.31    1.20
  -3   0  -6    7.48    1.65
  -3   0  -6    8.46    1.35
  -3   0  -6    7.07    1.05
   3   0   6   11.24    2.08
   3   0   6    6.87    0.96
   3   0   6   10.09    1.93
   3   0   6    9.32    1.34
  -4   0  -6    0.10    0.85
  -4   0  -6    0.91    0.54
  -4   0  -6    1.40    0.80
  -4   0  -6    0.92    0.42
  -4   0  -6    0.87    0.54
   4   0   6    1.60    0.65
   4   0   6    1.94    0.95
   4   0   6   -0.46    0.83
  -5   0  -6   -0.75    0.53
  -5   0  -6    0.11    0.66
  -5   0  -6    0.62    0.55
  -5   0  -6   -0.17    0.58
  -5   0  -6    1.22    1.20
   5   0   6    0.30    1.03
   5   0   6   -0.64    0.62
   5   0   6   -1.03    0.72
  -6   0  -6    2.63    1.10
  -6   0  -6    2.06    0.98
  -6   0  -6    2.48    0.64
  -6   0  -6    2.73    1.02
  -6   0  -6    4.75    1.73
   6   0   6    1.15    0.85
   6   0   6    3.66    1.53
   6   0   6    0.96    1.26
  -7   0  -6    4.46    1.40
  -7   0  -6    5.67    2.13
  -7   0  -6    4.73    1.18
   7   0   6    4.91    1.86
   7   0   6    2.82    1.76
   9  -1  -6   -0.57    0.78
   9  -1  -6    2.06    1.59
   9  -1  -6    0.35    1.31
   9  -1  -6    3.46    1.59
  -9   1   6    0.25    0.81
   8  -1  -6   18.33    2.97
   8  -1  -6   17.57    3.09
   8  -1  -6   15.32    1.41
  -8   1   6   13.57    2.19
  -8   1   6   16.41    2.50
  -8   1   6   14.67    2.36
   7  -1  -6    1.85    1.34
   7  -1  -6   -0.26    1.08
   7  -1  -6    0.24    0.54
   7  -1  -6    0.46    0.85
   7  -1  -6   -0.47    0.62
  -7   1   6    2.14    1.16
  -7   1   6   -0.50    0.46
  -7   1   6    1.45    1.00
   6  -1  -6    6.91    1.69
   6  -1  -6    6.93    1.39
   6  -1  -6    6.00    1.10
   6  -1  -6    8.22    1.90
  -6   1   6    8.01    1.59
  -6   1   6    9.68    1.76
  -6   1   6   10.03    1.28
  -6   1   6    9.50    1.68
   5  -1  -6    5.08    1.32
   5  -1  -6    4.60    0.94
   5  -1  -6    5.52    1.23
   5  -1  -6    6.43    1.56
  -5   1   6    5.37    1.16
  -5   1   6    6.13    1.04
  -5   1   6    6.01    1.27
  -5   1   6    6.63    1.30
   4  -1  -6  106.61    4.41
   4  -1  -6   95.98    4.12
   4  -1  -6  103.61    3.47
   4  -1  -6   91.67    3.67
   4  -1  -6  105.28    3.96
   4  -1  -6  100.40    2.89
  -4   1   6  102.44    3.90
  -4   1   6  104.71    3.49
  -4   1   6   99.87    3.96
  -4   1   6   99.92    3.57
   3  -1  -6   32.60    2.05
   3  -1  -6   34.68    2.22
   3  -1  -6   29.54    1.58
   3  -1  -6   35.29    2.38
   3  -1  -6   32.74    1.89
  -3   1   6   35.16    1.83
  -3   1   6   25.14    2.03
  -3   1   6   33.30    1.90
  -3   1   6   31.76    2.14
  -3   1   6   32.46    2.10
   2  -1  -6    3.26    0.99
   2  -1  -6    3.13    0.89
   2  -1  -6    4.98    0.91
   2  -1  -6    4.58    1.00
   2  -1  -6    3.90    0.95
  -2   1   6    4.53    0.73
  -2   1   6    4.55    1.16
  -2   1   6    5.08    0.98
  -2   1   6    5.56    1.11
  -2   1   6    2.60    0.92
   1  -1  -6    8.20    1.23
   1  -1  -6    6.73    1.12
   1  -1  -6    4.22    1.08
   1  -1  -6    7.79    1.26
  -1   1   6    5.93    0.59
  -1   1   6    4.73    0.98
  -1   1   6    7.34    1.24
  -1   1   6    7.59    1.22
  -1   1   6    5.71    1.03
  -1   1   6    7.37    1.51
   0  -1  -6   22.20    1.70
   0  -1  -6   19.76    1.50
   0  -1  -6   22.39    1.95
   0  -1  -6   21.22    1.78
   0   1   6   21.33    1.56
   0   1   6   24.55    1.69
   0   1   6   21.49    1.79
   0   1   6   19.44    1.70
   0   1   6   20.21    1.51
   0   1   6   21.15    0.93
  -1  -1  -6    9.79    1.59
  -1  -1  -6    7.83    1.13
  -1  -1  -6    6.29    1.40
  -1  -1  -6    8.15    1.51
  -1  -1  -6    8.80    1.36
  -1  -1  -6   10.50    1.46
   1   1   6   11.75    1.72
   1   1   6    7.95    1.48
   1   1   6    8.74    1.22
   1   1   6    9.16    1.23
   1   1   6    9.96    1.26
   1   1   6    7.06    0.54
   1   1   6    8.64    1.23
  -2  -1  -6   45.55    2.35
  -2  -1  -6   47.97    3.10
  -2  -1  -6   51.54    2.65
  -2  -1  -6   46.20    2.24
  -2  -1  -6   50.66    1.67
   2   1   6   52.50    2.25
   2   1   6   50.80    3.67
  -3  -1  -6    0.87    0.66
  -3  -1  -6    0.32    0.44
  -3  -1  -6   -0.55    0.73
  -3  -1  -6    0.63    0.64
  -3  -1  -6    0.89    0.57
   3   1   6    0.81    0.51
   3   1   6    0.80    0.47
   3   1   6    1.29    0.87
   3   1   6    0.72    0.42
  -4  -1  -6    2.24    0.86
  -4  -1  -6    1.53    1.03
  -4  -1  -6    1.79    0.50
  -4  -1  -6    2.47    0.72
  -4  -1  -6    0.92    0.64
  -4  -1  -6    2.22    0.76
   4   1   6    1.46    0.61
   4   1   6    2.11    0.63
   4   1   6    1.28    0.88
   4   1   6    1.54    0.56
   4   1   6    3.40    1.01
  -5  -1  -6    7.16    1.26
  -5  -1  -6    6.55    1.04
  -5  -1  -6    6.98    1.13
  -5  -1  -6    5.61    1.93
  -5  -1  -6    5.49    1.31
  -5  -1  -6    5.74    1.19
   5   1   6    5.27    1.67
   5   1   6    8.33    2.18
   5   1   6    6.34    1.02
   5   1   6    5.96    1.10
  -6  -1  -6    0.74    1.13
  -6  -1  -6    1.08    0.72
  -6  -1  -6    1.29    0.90
  -6  -1  -6    0.09    0.60
  -6  -1  -6   -0.54    0.84
   6   1   6    0.09    0.80
   6   1   6    1.91    1.32
   6   1   6    2.66    1.30
  -7  -1  -6   -0.99    1.16
  -7  -1  -6   -0.68    0.87
  -7  -1  -6    0.97    0.94
   7   1   6    1.41    1.63
   7   1   6   -2.36    0.78
   9  -2  -6   13.25    2.73
   9  -2  -6   17.66    3.01
   9  -2  -6   19.17    2.69
  -9   2   6   18.82    2.76
  -9   2   6   18.63    2.71
   8  -2  -6    2.96    1.00
   8  -2  -6    3.96    1.76
   8  -2  -6    5.80    1.88
   8  -2  -6    4.07    1.48
   8  -2  -6    1.78    0.97
  -8   2   6    5.01    1.18
  -8   2   6    4.05    1.27
  -8   2   6    3.24    1.71
   7  -2  -6    4.95    1.16
   7  -2  -6    0.91    1.11
   7  -2  -6    3.32    1.45
   7  -2  -6    0.86    0.75
  -7   2   6    2.17    0.93
  -7   2   6    1.89    0.96
  -7   2   6    0.79    0.85
   6  -2  -6    7.13    1.58
   6  -2  -6    6.88    1.71
   6  -2  -6    8.77    1.34
  -6   2   6   10.91    1.89
  -6   2   6    7.44    1.41
  -6   2   6    7.15    1.62
   5  -2  -6    7.12    1.64
   5  -2  -6   12.46    1.55
   5  -2  -6   11.12    1.66
   5  -2  -6    8.55    1.62
  -5   2   6    8.93    1.68
  -5   2   6    8.42    1.69
  -5   2   6   11.75    1.84
   4  -2  -6  102.00    4.47
   4  -2  -6  104.06    3.62
   4  -2  -6  107.96    4.19
   4  -2  -6   98.27    4.25
   4  -2  -6  103.36    3.46
   4  -2  -6  103.56    4.01
  -4   2   6  106.71    3.63
  -4   2   6  102.33    4.13
  -4   2   6  105.68    4.13
   3  -2  -6    0.18    0.42
   3  -2  -6    0.95    0.74
   3  -2  -6   -0.13    0.37
   3  -2  -6    0.00    0.52
  -3   2   6    0.11    0.60
  -3   2   6    0.32    0.58
  -3   2   6    1.34    0.71
  -3   2   6    0.40    0.45
  -3   2   6    1.10    0.72
   2  -2  -6  216.51    5.89
   2  -2  -6  221.83    6.36
   2  -2  -6  225.38    5.80
   2  -2  -6  209.57    5.45
   2  -2  -6  220.46    5.73
  -2   2   6  211.58    5.85
  -2   2   6  215.47    6.26
  -2   2   6  212.67    4.41
  -2   2   6  225.82    5.67
  -2   2   6  210.68    5.68
   1  -2  -6   36.26    2.08
   1  -2  -6   31.36    2.34
   1  -2  -6   34.04    2.14
   1  -2  -6   35.63    2.01
   1  -2  -6   33.98    2.20
  -1   2   6   32.65    2.23
  -1   2   6   29.50    2.11
  -1   2   6   34.24    2.08
  -1   2   6   34.43    1.08
  -1   2   6   37.69    2.09
   0  -2  -6   65.81    2.88
   0  -2  -6   61.76    2.68
   0  -2  -6   69.40    3.32
   0  -2  -6   62.18    3.29
   0  -2  -6   67.02    3.60
   0   2   6   65.32    2.81
   0   2   6   68.85    3.39
   0   2   6   65.59    2.69
   0   2   6   65.91    3.29
   0   2   6   65.42    1.68
   0   2   6   69.88    2.95
  -1  -2  -6   98.83    3.48
  -1  -2  -6   99.85    3.46
  -1  -2  -6   97.69    4.30
   1   2   6   91.48    4.28
   1   2   6  105.78    3.66
  -2  -2  -6    0.43    0.44
  -2  -2  -6    1.22    0.62
  -2  -2  -6    1.47    0.83
  -2  -2  -6    1.39    0.69
   2   2   6    1.19    0.55
   2   2   6    0.56    0.83
   2   2   6    1.72    0.74
  -3  -2  -6    1.94    0.77
  -3  -2  -6    2.02    0.72
  -3  -2  -6    1.94    0.82
  -3  -2  -6    1.38    1.10
  -3  -2  -6    0.84    0.32
   3   2   6    0.97    0.97
   3   2   6    1.39    0.57
   3   2   6    1.56    0.74
  -4  -2  -6    0.34    0.41
  -4  -2  -6   -0.54    0.46
  -4  -2  -6    0.75    0.75
  -4  -2  -6    0.51    0.70
  -4  -2  -6   -0.16    0.62
  -4  -2  -6    0.48    0.48
   4   2   6    0.41    0.44
   4   2   6    1.18    0.54
   4   2   6    1.00    0.92
  -5  -2  -6    7.37    1.31
  -5  -2  -6    7.74    1.12
  -5  -2  -6    7.38    1.20
  -5  -2  -6    7.35    1.25
  -5  -2  -6    7.47    1.28
   5   2   6    7.46    2.20
   5   2   6    7.89    1.11
   5   2   6   10.02    2.30
  -6  -2  -6    2.53    1.00
  -6  -2  -6    2.33    1.54
  -6  -2  -6    1.77    0.84
   6   2   6    5.23    1.86
   6   2   6    2.46    1.47
   9  -3  -6    4.32    1.69
   9  -3  -6    2.22    1.61
   9  -3  -6    2.64    1.40
   9  -3  -6    3.34    1.61
  -9   3   6    2.31    1.46
  -9   3   6    5.46    1.89
   8  -3  -6    4.34    1.56
   8  -3  -6    1.24    1.16
   8  -3  -6    3.88    1.66
  -8   3   6    3.29    1.20
   7  -3  -6    0.29    1.11
   7  -3  -6   -0.80    0.64
   7  -3  -6    0.96    1.01
  -7   3   6   -0.22    0.47
  -7   3   6    0.67    0.85
   6  -3  -6   29.24    2.42
   6  -3  -6   36.62    2.81
  -6   3   6   35.55    2.52
  -6   3   6   37.33    2.86
   5  -3  -6    1.78    1.09
   5  -3  -6    1.21    1.05
   5  -3  -6    0.68    0.81
  -5   3   6    1.72    0.98
  -5   3   6    1.75    0.88
   4  -3  -6   52.46    3.20
   4  -3  -6   57.51    3.16
   4  -3  -6   55.73    3.09
   4  -3  -6   54.70    2.76
   4  -3  -6   50.87    2.94
  -4   3   6   50.88    2.44
  -4   3   6   54.20    3.01
   3  -3  -6   17.55    1.69
   3  -3  -6   20.30    2.04
   3  -3  -6   22.28    1.82
   3  -3  -6   20.10    1.78
  -3   3   6   20.21    1.35
  -3   3   6   19.67    1.79
   2  -3  -6   43.34    2.45
   2  -3  -6   41.79    2.57
  -2   3   6   41.72    2.36
  -2   3   6   45.44    2.65
  -2   3   6   43.66    2.73
   1  -3  -6   52.00    2.91
   1  -3  -6   48.84    3.41
   1  -3  -6   48.35    2.47
   1  -3  -6   50.43    2.66
  -1   3   6   47.26    2.89
  -1   3   6   51.46    2.07
  -1   3   6   55.97    2.57
   0  -3  -6    5.70    1.43
   0  -3  -6    8.51    1.30
   0  -3  -6    6.01    0.98
   0   3   6    4.23    0.89
   0   3   6    5.97    1.24
   0   3   6    7.08    0.71
   0   3   6    4.05    1.15
  -1  -3  -6   63.16    3.63
  -1  -3  -6   62.85    2.84
  -1  -3  -6   57.70    2.64
   1   3   6   64.20    1.83
   1   3   6   63.14    3.77
   1   3   6   60.69    3.05
   1   3   6   69.65    2.97
  -2  -3  -6   80.09    4.26
  -2  -3  -6   79.97    3.23
  -2  -3  -6   84.93    3.20
   2   3   6   78.67    4.48
   2   3   6   76.57    2.60
   2   3   6   79.91    3.41
  -3  -3  -6   12.38    1.61
  -3  -3  -6   12.07    1.25
  -3  -3  -6    9.90    0.65
  -3  -3  -6    7.97    1.94
   3   3   6   11.87    1.87
   3   3   6   10.94    0.89
   3   3   6   12.05    2.25
  -4  -3  -6    0.44    0.54
  -4  -3  -6   -0.04    1.03
  -4  -3  -6    0.73    0.42
  -4  -3  -6    0.04    0.56
  -4  -3  -6    1.51    0.56
   4   3   6    1.56    1.02
  -5  -3  -6    2.56    0.76
  -5  -3  -6    2.69    0.94
  -5  -3  -6    3.21    1.57
   5   3   6    0.20    1.39
  -6  -3  -6    1.32    1.22
  -6  -3  -6    0.84    0.71
  -6  -3  -6    0.83    1.09
   6   3   6    0.26    1.42
   9  -4  -6    1.47    1.53
   9  -4  -6    5.66    2.01
   9  -4  -6    2.31    1.76
   9  -4  -6    5.39    1.43
  -9   4   6    3.67    1.34
  -9   4   6    5.72    1.75
   8  -4  -6    8.96    2.06
   8  -4  -6   12.33    2.49
   8  -4  -6   13.05    2.35
  -8   4   6   12.41    2.47
  -8   4   6    6.55    1.73
   7  -4  -6    2.83    1.18
  -7   4   6    4.01    1.30
  -7   4   6    3.72    1.29
   6  -4  -6    3.56    1.30
   6  -4  -6    5.23    1.37
  -6   4   6    6.72    1.48
  -6   4   6    6.83    1.65
   5  -4  -6    9.95    1.82
   5  -4  -6   11.38    1.79
   5  -4  -6    9.92    2.03
  -5   4   6    8.66    1.52
  -5   4   6   10.73    1.83
   4  -4  -6   84.03    3.98
   4  -4  -6   85.87    3.23
   4  -4  -6   74.00    3.67
   4  -4  -6   78.91    3.72
   4  -4  -6   80.44    3.77
   4  -4  -6   80.11    4.09
  -4   4   6   76.95    3.75
  -4   4   6   86.04    3.23
  -4   4   6   80.77    3.90
   3  -4  -6    3.12    1.09
   3  -4  -6    3.30    1.16
   3  -4  -6    2.51    1.12
   3  -4  -6    1.61    0.94
   3  -4  -6    1.65    0.57
  -3   4   6    2.14    0.63
  -3   4   6    1.71    0.71
  -3   4   6    1.52    0.79
   2  -4  -6    3.99    1.03
   2  -4  -6    6.22    1.26
   2  -4  -6    4.79    1.48
  -2   4   6    5.27    1.03
  -2   4   6    3.23    0.85
  -2   4   6    5.35    1.30
   1  -4  -6    0.73    0.60
   1  -4  -6    0.82    0.65
   1  -4  -6    0.52    0.74
  -1   4   6    1.18    0.56
  -1   4   6   -0.46    0.51
  -1   4   6    0.89    0.69
   0  -4  -6    5.99    1.47
   0  -4  -6    7.40    1.32
   0  -4  -6    5.59    1.15
   0   4   6    4.22    0.99
   0   4   6    6.78    0.96
   0   4   6    5.10    1.27
  -1  -4  -6    1.54    0.71
  -1  -4  -6    2.07    1.06
  -1  -4  -6    2.09    0.80
   1   4   6    2.03    0.62
   1   4   6    1.74    0.97
   1   4   6    1.86    0.92
  -2  -4  -6    8.90    1.29
  -2  -4  -6    8.27    1.31
  -2  -4  -6    7.09    1.90
   2   4   6    7.30    1.48
   2   4   6    8.60    1.95
   2   4   6    6.59    0.85
  -3  -4  -6   -0.58    0.43
  -3  -4  -6    0.64    1.21
  -3  -4  -6    0.12    0.59
   3   4   6    0.60    0.87
   3   4   6    1.10    0.91
  -4  -4  -6   -0.89    0.65
  -4  -4  -6   -0.39    0.52
  -4  -4  -6   -0.20    1.08
   4   4   6   -0.80    0.48
   4   4   6   -0.76    0.86
  -5  -4  -6    4.33    0.77
  -5  -4  -6    9.61    2.47
  -5  -4  -6    5.09    1.05
  -5  -4  -6    7.12    1.11
   5   4   6    9.05    2.15
   5   4   6    9.08    1.66
   9  -5  -6    4.37    1.48
   9  -5  -6    2.85    1.48
   9  -5  -6    1.50    1.64
  -9   5   6    3.87    1.69
  -9   5   6    4.08    1.50
  -9   5   6    5.63    1.94
   8  -5  -6    4.72    1.65
   8  -5  -6    2.27    1.24
   8  -5  -6    4.64    1.42
  -8   5   6    4.43    1.64
  -8   5   6    8.39    1.82
   7  -5  -6   -0.76    0.98
   7  -5  -6    1.95    1.08
  -7   5   6    0.28    0.76
  -7   5   6    1.23    0.92
  -7   5   6    0.33    0.90
   6  -5  -6    0.39    0.65
   6  -5  -6   -0.63    0.85
   6  -5  -6    1.84    0.98
  -6   5   6   -0.01    0.78
  -6   5   6    1.13    1.11
  -6   5   6    1.57    0.89
   5  -5  -6   39.61    3.04
   5  -5  -6   37.57    2.90
   5  -5  -6   34.11    2.56
  -5   5   6   36.14    2.84
  -5   5   6   33.29    2.31
  -5   5   6   41.58    3.45
   4  -5  -6    3.86    1.13
   4  -5  -6    2.21    0.98
   4  -5  -6    2.42    0.95
   4  -5  -6    2.73    1.22
   4  -5  -6    3.67    0.90
  -4   5   6    4.27    1.29
  -4   5   6    2.16    0.69
  -4   5   6    5.37    1.41
   3  -5  -6    0.68    0.80
   3  -5  -6   -0.42    0.79
   3  -5  -6    0.45    0.51
   3  -5  -6    0.56    0.63
  -3   5   6    0.77    0.82
  -3   5   6    0.54    0.53
  -3   5   6    1.61    0.98
   2  -5  -6   30.97    2.36
   2  -5  -6   31.68    2.57
   2  -5  -6   30.37    2.23
  -2   5   6   31.91    2.50
  -2   5   6   31.00    2.20
   1  -5  -6   31.81    2.17
   1  -5  -6   36.07    2.42
   1  -5  -6   35.64    2.73
  -1   5   6   34.53    2.10
  -1   5   6   33.20    2.67
  -1   5   6   33.67    2.10
   0  -5  -6    7.11    1.37
   0  -5  -6    5.82    1.36
   0  -5  -6    6.56    1.66
   0   5   6    6.34    1.45
   0   5   6    8.37    1.19
   0   5   6    5.27    1.04
  -1  -5  -6   22.19    1.86
  -1  -5  -6   21.97    2.28
  -1  -5  -6   23.75    1.80
   1   5   6   23.00    2.28
   1   5   6   19.71    1.39
   1   5   6   21.82    1.55
  -2  -5  -6   26.42    1.87
  -2  -5  -6   28.16    2.71
  -2  -5  -6   31.88    2.12
   2   5   6   27.58    1.66
   2   5   6   27.42    2.96
   2   5   6   26.48    2.41
  -3  -5  -6    2.50    1.28
  -3  -5  -6    1.43    0.57
   3   5   6    3.26    1.18
  -4  -5  -6    0.02    0.60
  -4  -5  -6   -2.67    0.85
  -4  -5  -6    0.16    0.53
   4   5   6    1.78    0.98
   4   5   6    1.77    1.22
  -5  -5  -6    0.45    1.24
  -5  -5  -6    2.09    0.75
   5   5   6    1.30    1.13
   5   5   6    1.15    1.21
   8  -6  -6    1.16    1.27
   8  -6  -6   -0.25    1.12
   8  -6  -6    0.15    0.92
  -8   6   6   -0.45    1.45
  -8   6   6   -1.49    0.71
  -8   6   6   -0.49    1.04
   7  -6  -6    0.73    1.07
   7  -6  -6    0.09    1.23
  -7   6   6   -0.68    0.80
  -7   6   6   -0.49    1.00
  -7   6   6   -0.50    1.13
   6  -6  -6    4.92    1.55
   6  -6  -6    6.84    1.60
  -6   6   6    8.43    1.56
  -6   6   6    6.10    1.57
  -6   6   6    7.59    1.82
   5  -6  -6    5.68    1.27
   5  -6  -6    6.18    1.54
   5  -6  -6    4.87    1.43
  -5   6   6    6.76    1.79
  -5   6   6    3.77    1.21
   4  -6  -6   28.25    2.61
   4  -6  -6   28.07    1.91
   4  -6  -6   25.11    2.10
   4  -6  -6   29.87    2.61
  -4   6   6   25.47    2.48
  -4   6   6   31.02    2.05
  -4   6   6   30.51    2.59
   3  -6  -6   11.09    1.17
   3  -6  -6   10.18    1.96
   3  -6  -6   12.05    2.10
   3  -6  -6   11.45    2.01
  -3   6   6   12.47    2.08
  -3   6   6   11.72    1.90
  -3   6   6   12.08    2.17
  -3   6   6   11.31    1.22
   2  -6  -6    8.26    0.80
   2  -6  -6   10.60    1.98
   2  -6  -6   10.61    1.87
   2  -6  -6   14.14    1.99
  -2   6   6    8.58    1.53
  -2   6   6   13.11    1.94
  -2   6   6    8.15    1.79
   1  -6  -6    3.34    1.18
   1  -6  -6    6.11    1.60
  -1   6   6    4.33    1.46
   0  -6  -6    6.26    1.29
   0  -6  -6    9.70    1.79
   0  -6  -6    6.67    1.35
   0   6   6    6.11    1.22
   0   6   6    4.74    0.97
   0   6   6    9.67    1.88
  -1  -6  -6    0.25    0.82
  -1  -6  -6    0.24    0.57
  -1  -6  -6    0.92    0.69
   1   6   6   -0.25    0.55
   1   6   6    0.00    0.61
   1   6   6   -0.91    0.71
  -2  -6  -6    7.66    1.97
  -2  -6  -6    7.46    1.30
  -2  -6  -6    7.30    1.94
   2   6   6    4.92    1.10
   2   6   6    5.56    1.48
  -3  -6  -6    1.20    1.28
  -3  -6  -6    0.06    0.48
  -3  -6  -6    0.93    0.60
   3   6   6    0.48    0.97
  -4  -6  -6    0.63    0.71
  -4  -6  -6    0.08    0.51
  -4  -6  -6    1.78    1.39
   4   6   6   -0.47    1.18
   8  -7  -6   -0.16    1.36
   8  -7  -6   -0.20    1.27
  -8   7   6    0.48    1.38
  -8   7   6    0.68    1.24
  -8   7   6    1.85    1.17
   7  -7  -6    0.90    1.46
   7  -7  -6    1.20    1.14
  -7   7   6    0.34    1.40
  -7   7   6    0.98    1.31
  -7   7   6    0.64    1.01
   6  -7  -6   10.39    1.72
  -6   7   6   14.58    2.54
  -6   7   6   14.67    2.63
  -6   7   6   12.14    1.94
   5  -7  -6   18.67    2.77
   5  -7  -6   19.45    1.82
   5  -7  -6   18.88    2.67
  -5   7   6   16.69    2.66
  -5   7   6   16.70    2.14
   4  -7  -6    0.72    0.80
   4  -7  -6    0.32    0.82
   4  -7  -6    2.07    1.17
  -4   7   6    0.68    0.84
  -4   7   6   -0.35    0.78
  -4   7   6    2.00    1.07
   3  -7  -6    6.36    1.56
   3  -7  -6    6.17    0.98
   3  -7  -6    8.03    1.68
  -3   7   6    6.26    1.10
  -3   7   6    8.86    1.61
  -3   7   6    6.12    1.71
  -3   7   6    8.75    1.66
   2  -7  -6    4.75    1.39
   2  -7  -6    5.34    1.22
   2  -7  -6    5.44    1.48
   2  -7  -6    5.42    0.74
  -2   7   6    9.56    1.92
  -2   7   6   10.09    2.10
  -2   7   6    6.26    1.50
   1  -7  -6    1.10    0.77
   1  -7  -6    0.34    1.30
   1  -7  -6    0.42    0.87
  -1   7   6    0.04    0.75
  -1   7   6    0.69    0.91
  -1   7   6    3.40    1.37
   0  -7  -6    0.78    1.00
   0  -7  -6    0.16    0.64
   0  -7  -6   -0.21    0.56
   0   7   6   -0.14    0.76
   0   7   6   -0.05    0.72
  -1  -7  -6    5.21    1.11
  -1  -7  -6    5.68    1.53
  -1  -7  -6    5.10    1.20
   1   7   6    5.24    1.56
   1   7   6    5.51    1.34
  -2  -7  -6   -1.29    0.87
  -2  -7  -6   -0.28    0.52
   2   7   6   -1.45    0.75
   2   7   6   -0.25    1.01
  -3  -7  -6    2.57    0.72
  -3  -7  -6    1.27    1.37
  -3  -7  -6    1.62    0.79
   3   7   6    3.88    1.64
   7  -8  -6    0.43    1.12
   7  -8  -6    2.96    1.49
  -7   8   6    1.58    1.31
  -7   8   6    1.87    1.39
  -7   8   6    4.15    1.89
   6  -8  -6    2.08    1.40
   6  -8  -6   -0.36    0.79
  -6   8   6    0.72    1.06
  -6   8   6    0.46    1.24
  -6   8   6    1.10    1.08
   5  -8  -6   17.16    2.71
   5  -8  -6   18.34    2.61
  -5   8   6   15.57    2.56
  -5   8   6   22.50    2.19
  -5   8   6   14.90    2.64
   4  -8  -6   29.66    2.79
   4  -8  -6   30.66    2.73
  -4   8   6   31.84    3.04
  -4   8   6   23.17    2.99
  -4   8   6   26.60    2.36
  -4   8   6   28.73    2.81
   3  -8  -6   15.64    2.38
   3  -8  -6   11.61    1.98
   3  -8  -6   10.79    2.32
  -3   8   6   16.72    2.45
  -3   8   6   13.78    2.18
  -3   8   6   14.65    2.57
   2  -8  -6    3.57    1.18
   2  -8  -6    2.30    1.28
   2  -8  -6    2.38    1.22
   2  -8  -6    1.61    0.56
  -2   8   6    2.26    1.25
  -2   8   6    0.05    0.95
  -2   8   6    0.09    1.10
   1  -8  -6    0.03    0.81
  -1   8   6    1.86    1.23
  -1   8   6    2.42    1.21
  -1   8   6    2.08    0.94
   0  -8  -6    4.23    1.27
   0  -8  -6    7.20    1.58
   0  -8  -6    4.33    1.30
   0   8   6    2.95    1.18
   0   8   6    3.78    2.56
  -1  -8  -6    1.14    1.19
  -1  -8  -6    0.13    0.67
   1   8   6   -0.72    1.02
   1   8   6    2.10    1.12
  -2  -8  -6    1.73    0.73
  -2  -8  -6    6.55    1.76
   2   8   6    1.75    1.16
   2   8   6    1.25    1.26
   5  -9  -6   -0.02    0.97
   5  -9  -6    1.05    1.10
  -5   9   6   -1.38    1.06
  -5   9   6   -0.20    1.88
  -5   9   6   -1.55    1.06
  -5   9   6   -2.47    1.06
   4  -9  -6    0.52    1.08
   4  -9  -6    1.08    0.91
  -4   9   6    2.16    1.55
  -4   9   6    0.61    1.04
  -4   9   6    0.47    0.99
  -4   9   6   -0.75    1.00
   3  -9  -6    0.66    1.07
   3  -9  -6    2.00    1.14
  -3   9   6    2.42    1.66
  -3   9   6    2.32    1.49
  -3   9   6    1.53    1.04
   2  -9  -6    0.79    1.07
   2  -9  -6    0.52    0.93
  -2   9   6    0.22    1.20
  -2   9   6   -0.16    0.94
   1  -9  -6    0.74    0.82
   1  -9  -6    0.53    1.06
  -1   9   6    0.95    1.13
  -1   9   6    0.04    1.14
   0  -9  -6   -0.42    1.12
   0  -9  -6    1.35    0.97
   0   9   6   -0.41    1.15
   0   9   6   -0.64    1.35
   1  11  -7    0.76    1.24
  -1 -11   7    3.73    1.31
  -1 -11   7    0.19    1.24
   0  11  -7    5.11    1.85
   0 -11   7    1.40    1.09
   0 -11   7   -0.24    1.25
  -1  11  -7    1.30    1.31
   1 -11   7    3.02    1.50
   1 -11   7    2.07    1.08
  -2  11  -7   -4.00    1.75
  -2  11  -7   -3.39    1.17
   2 -11   7   -0.59    0.59
   2 -11   7   -0.52    0.96
  -3  11  -7    0.79    1.42
   3 -11   7    0.58    1.18
   3 -11   7   -1.00    0.93
   3  10  -7   12.44    2.44
  -3 -10   7   13.43    2.47
  -3 -10   7   11.92    1.77
   2  10  -7    6.16    1.89
   2  10  -7    6.20    1.53
  -2 -10   7   10.37    2.32
  -2 -10   7    6.49    1.51
   1  10  -7    3.25    1.14
   1  10  -7   -0.01    1.15
  -1 -10   7   -0.53    0.69
  -1 -10   7    0.13    1.01
   0  10  -7   -1.47    1.23
   0  10  -7    1.31    0.76
   0  10  -7    3.29    1.56
   0 -10   7    1.11    0.79
   0 -10   7    1.31    1.16
  -1  10  -7   -0.97    1.09
  -1  10  -7   -0.27    0.92
  -1  10  -7   -0.22    0.61
   1 -10   7   -0.16    0.82
   1 -10   7    0.77    0.90
   1 -10   7    0.63    1.66
  -2  10  -7    1.04    1.11
  -2  10  -7    0.58    1.29
   2 -10   7    0.32    1.00
   2 -10   7    0.63    0.89
  -3  10  -7    2.06    1.09
  -3  10  -7    0.83    1.54
   3 -10   7    0.58    1.07
   3 -10   7    3.13    1.34
   3 -10   7    0.57    0.69
  -4  10  -7    3.03    1.72
  -4  10  -7    1.70    1.42
  -4  10  -7    1.27    0.89
  -4  10  -7    1.15    0.96
   4 -10   7    2.64    1.01
   4 -10   7    1.80    1.19
   4 -10   7    0.81    0.89
  -5  10  -7   -0.46    1.56
  -5  10  -7    0.67    1.28
  -5  10  -7   -0.80    1.23
  -5  10  -7   -1.72    1.07
   5 -10   7    1.29    1.22
   5 -10   7    0.63    1.10
   5 -10   7    0.57    1.19
   4   9  -7   -0.02    1.18
   4   9  -7    1.77    1.68
  -4  -9   7    1.30    0.74
  -4  -9   7   -0.80    0.85
  -4  -9   7    1.26    1.00
   3   9  -7    1.53    1.07
  -3  -9   7    1.43    0.87
  -3  -9   7    1.57    1.20
  -3  -9   7    1.57    0.88
   2   9  -7    3.06    1.12
   2   9  -7    4.11    1.29
   2   9  -7    4.34    1.64
  -2  -9   7    3.21    1.64
  -2  -9   7    3.72    1.17
  -2  -9   7    1.57    0.86
   1   9  -7    1.65    1.00
   1   9  -7   -0.09    0.83
  -1  -9   7    0.60    0.89
  -1  -9   7    1.08    0.84
  -1  -9   7    2.12    1.00
   0   9  -7   -0.64    0.60
   0   9  -7    0.77    0.63
   0   9  -7   -0.64    0.72
   0  -9   7   -0.83    0.58
   0  -9   7    0.54    0.74
   0  -9   7    0.38    1.15
  -1   9  -7    5.01    1.55
  -1   9  -7    3.99    0.86
  -1   9  -7    2.90    1.22
   1  -9   7    1.53    1.27
  -2   9  -7    0.61    1.14
  -2   9  -7    1.09    1.27
  -2   9  -7    3.60    1.48
   2  -9   7   -0.03    0.85
  -3   9  -7    3.16    0.89
  -3   9  -7    4.99    1.75
  -3   9  -7    4.13    0.83
   3  -9   7    4.10    0.92
   3  -9   7    5.36    1.49
  -4   9  -7   16.09    2.71
  -4   9  -7   15.36    2.63
  -4   9  -7   14.56    2.69
   4  -9   7   15.66    2.36
   4  -9   7   16.24    2.69
  -5   9  -7   14.01    2.12
  -5   9  -7   20.70    3.24
  -5   9  -7   20.94    3.19
  -5   9  -7   24.31    3.30
   5  -9   7   18.57    2.45
   5  -9   7   18.83    2.48
   5  -9   7   23.40    3.24
   5   8  -7    0.02    1.16
   5   8  -7   -0.80    0.92
  -5  -8   7   -0.88    1.26
  -5  -8   7    0.23    0.67
  -5  -8   7    0.95    1.09
   4   8  -7    4.30    1.58
   4   8  -7    7.67    2.00
  -4  -8   7    2.95    1.25
  -4  -8   7    3.30    0.68
  -4  -8   7    3.19    1.09
  -4  -8   7    4.92    1.18
   3   8  -7   20.07    2.89
  -3  -8   7   17.17    2.37
  -3  -8   7   18.27    1.81
   2   8  -7    6.87    1.53
   2   8  -7    8.54    1.94
   2   8  -7    7.62    1.85
  -2  -8   7    9.00    1.73
  -2  -8   7    7.98    1.73
  -2  -8   7    7.80    1.51
   1   8  -7    7.49    1.45
   1   8  -7    7.12    1.25
   1   8  -7    5.61    1.50
  -1  -8   7    7.23    1.47
  -1  -8   7    7.98    1.54
  -1  -8   7    9.69    1.91
   0   8  -7    0.79    0.86
   0   8  -7    0.04    0.71
   0   8  -7   -0.19    0.94
   0  -8   7    0.48    0.82
   0  -8   7    0.14    1.02
   0  -8   7    0.78    0.92
  -1   8  -7    3.19    1.30
  -1   8  -7    2.97    1.36
   1  -8   7    3.83    1.33
   1  -8   7    5.40    1.65
   1  -8   7    4.57    1.42
  -2   8  -7    8.51    1.89
  -2   8  -7    9.67    1.98
  -2   8  -7    6.25    0.94
   2  -8   7    7.98    1.67
   2  -8   7    7.77    0.98
  -3   8  -7   26.67    3.37
  -3   8  -7   21.98    2.76
  -3   8  -7   22.27    2.94
  -3   8  -7   19.30    1.74
   3  -8   7   21.18    1.75
   3  -8   7   21.66    2.17
   3  -8   7   19.25    2.67
  -4   8  -7    0.55    0.96
  -4   8  -7    0.23    1.03
  -4   8  -7    1.12    1.08
   4  -8   7    1.49    1.29
   4  -8   7    1.26    0.85
  -5   8  -7   -1.20    1.26
  -5   8  -7    0.42    1.08
  -5   8  -7    0.04    1.14
  -5   8  -7   -0.80    0.54
   5  -8   7    0.65    1.08
   5  -8   7    0.64    1.00
   5  -8   7    2.54    1.28
  -6   8  -7    5.66    1.90
  -6   8  -7    3.69    1.52
  -6   8  -7    2.85    1.42
  -6   8  -7    2.18    1.35
   6  -8   7    4.86    1.71
   6  -8   7    9.46    2.08
   6  -8   7    2.20    1.01
   6  -8   7    0.93    1.13
   6   7  -7   -0.42    1.41
  -6  -7   7    3.08    0.87
  -6  -7   7    2.20    1.17
  -6  -7   7    2.98    0.98
   5   7  -7    4.78    1.78
  -5  -7   7    3.40    1.01
  -5  -7   7    3.15    1.19
  -5  -7   7    5.52    1.37
  -5  -7   7    2.22    1.05
   4   7  -7    0.77    0.66
  -4  -7   7    0.23    0.93
  -4  -7   7    3.21    0.94
  -4  -7   7    0.02    0.74
  -4  -7   7    3.58    1.23
  -4  -7   7   -0.14    0.67
   3   7  -7   31.26    2.71
   3   7  -7   25.50    1.80
  -3  -7   7   26.75    1.42
  -3  -7   7   31.23    2.17
  -3  -7   7   33.62    2.70
  -3  -7   7   29.57    2.16
  -3  -7   7   32.89    2.34
   2   7  -7    6.42    1.47
   2   7  -7    4.75    1.38
  -2  -7   7    4.27    1.14
  -2  -7   7    8.65    1.71
  -2  -7   7    4.13    1.12
   1   7  -7   12.65    2.09
   1   7  -7   12.29    1.78
   1   7  -7   18.10    2.17
  -1  -7   7   16.29    2.07
  -1  -7   7   12.00    1.74
  -1  -7   7   14.81    2.12
   0   7  -7    1.52    0.97
   0   7  -7    1.15    0.28
   0   7  -7    1.89    0.79
   0   7  -7    0.72    0.84
   0  -7   7    1.51    0.78
   0  -7   7    2.13    0.97
   0  -7   7    0.13    0.82
  -1   7  -7    7.73    1.72
  -1   7  -7    6.96    1.56
   1  -7   7    7.38    1.80
   1  -7   7    5.96    1.44
   1  -7   7    8.13    1.64
  -2   7  -7   19.91    2.56
  -2   7  -7   21.52    2.85
  -2   7  -7   19.27    1.52
   2  -7   7   19.23    2.39
   2  -7   7   17.45    2.41
  -3   7  -7   31.58    2.28
  -3   7  -7   26.40    2.47
  -3   7  -7   26.72    2.56
  -3   7  -7   30.17    2.77
   3  -7   7   30.43    2.14
   3  -7   7   29.59    2.59
   3  -7   7   27.24    2.08
   3  -7   7   25.19    2.20
  -4   7  -7   39.92    3.31
  -4   7  -7   37.41    3.08
  -4   7  -7   35.96    2.79
  -4   7  -7   37.61    2.71
   4  -7   7   40.00    2.78
   4  -7   7   32.03    2.38
   4  -7   7   32.27    2.82
  -5   7  -7   11.30    2.00
  -5   7  -7   12.24    2.32
  -5   7  -7   13.97    2.42
  -5   7  -7   11.54    2.20
   5  -7   7   13.56    2.49
   5  -7   7   20.22    2.72
   5  -7   7   12.71    1.76
   5  -7   7   11.87    2.32
  -6   7  -7    1.55    1.25
  -6   7  -7   -0.69    0.98
  -6   7  -7    1.00    1.28
  -6   7  -7   -0.70    0.74
   6  -7   7    1.66    1.24
   6  -7   7   -0.01    1.07
   6  -7   7   -1.13    1.00
   6  -7   7   -1.47    0.65
  -7   7  -7   -2.02    0.91
  -7   7  -7   -0.01    1.40
  -7   7  -7   -2.09    0.81
  -7   7  -7   -0.85    1.20
   7  -7   7   -2.56    1.20
   7  -7   7    1.67    1.63
   7  -7   7   -0.92    0.97
   7   6  -7   14.43    2.36
   7   6  -7   15.36    3.22
  -7  -6   7   10.93    2.25
  -7  -6   7    8.00    1.50
  -7  -6   7   11.78    1.81
  -7  -6   7   11.19    1.46
   6   6  -7    0.62    1.38
  -6  -6   7    5.98    1.71
  -6  -6   7    3.45    1.10
  -6  -6   7    2.28    0.89
   5   6  -7    9.74    1.52
   5   6  -7   11.98    2.49
  -5  -6   7   11.14    1.84
  -5  -6   7    9.86    1.04
  -5  -6   7    8.12    1.47
  -5  -6   7    8.94    1.42
   4   6  -7    5.92    0.98
   4   6  -7    9.48    1.86
  -4  -6   7    4.04    1.09
  -4  -6   7    8.97    1.75
  -4  -6   7    4.68    0.86
  -4  -6   7    5.30    1.24
  -4  -6   7    4.63    1.09
   3   6  -7    1.46    0.99
   3   6  -7    0.73    0.77
   3   6  -7    0.31    0.56
  -3  -6   7    0.42    0.71
  -3  -6   7    0.97    0.63
  -3  -6   7   -0.96    0.69
  -3  -6   7    0.69    0.54
   2   6  -7   17.76    2.35
   2   6  -7   19.25    1.59
   2   6  -7   17.05    2.37
  -2  -6   7   17.67    1.21
  -2  -6   7   16.54    1.67
  -2  -6   7   19.00    2.47
  -2  -6   7   20.87    1.98
   1   6  -7   99.05    4.15
   1   6  -7   97.01    4.25
   1   6  -7   94.78    3.94
  -1  -6   7   99.19    4.05
  -1  -6   7   96.20    2.72
  -1  -6   7  100.81    4.20
  -1  -6   7  100.69    4.26
   0   6  -7    8.20    1.58
   0   6  -7    6.84    1.42
   0   6  -7    7.21    1.06
   0  -6   7    7.55    1.45
   0  -6   7    7.33    1.42
   0  -6   7    6.96    1.49
  -1   6  -7   18.32    2.28
  -1   6  -7   16.69    1.38
  -1   6  -7   17.63    2.28
   1  -6   7   17.23    2.15
   1  -6   7   18.94    2.64
   1  -6   7   15.06    2.13
   1  -6   7   15.06    2.07
  -2   6  -7   91.27    4.51
  -2   6  -7   85.91    3.46
  -2   6  -7   87.96    3.95
  -2   6  -7   94.58    4.43
   2  -6   7   92.38    3.17
   2  -6   7   87.12    3.45
   2  -6   7   85.73    4.19
   2  -6   7   94.47    3.96
  -3   6  -7  112.83    4.93
  -3   6  -7  108.20    4.49
  -3   6  -7  105.15    5.06
  -3   6  -7  112.10    4.37
   3  -6   7  104.98    3.51
   3  -6   7  111.73    4.18
   3  -6   7  116.82    4.99
   3  -6   7  110.37    4.25
  -4   6  -7   15.46    2.36
  -4   6  -7   16.87    2.51
  -4   6  -7   20.50    1.98
  -4   6  -7   16.92    2.31
   4  -6   7   15.83    2.45
   4  -6   7   15.10    2.22
   4  -6   7   19.51    1.70
   4  -6   7   16.87    1.24
   4  -6   7   16.41    2.57
  -5   6  -7    1.09    0.84
  -5   6  -7    1.98    1.32
  -5   6  -7    1.44    1.04
  -5   6  -7    2.23    1.08
   5  -6   7    3.11    1.02
   5  -6   7    1.92    0.82
   5  -6   7    3.36    1.25
  -6   6  -7    0.57    1.29
  -6   6  -7   -0.17    1.18
  -6   6  -7   -1.30    1.00
  -6   6  -7   -0.29    1.00
   6  -6   7    0.52    1.23
   6  -6   7   -0.09    0.72
   6  -6   7   -0.53    1.05
   6  -6   7   -0.13    1.11
  -7   6  -7   -0.56    1.25
  -7   6  -7    0.72    1.36
  -7   6  -7    1.04    0.95
  -7   6  -7    0.61    1.11
   7  -6   7    2.82    1.56
   7  -6   7    1.05    0.73
   7  -6   7   -2.14    1.07
   7  -6   7   -1.32    1.08
   8   5  -7   -1.44    1.34
   8   5  -7    0.78    1.07
  -8  -5   7   -0.77    0.66
  -8  -5   7    0.62    0.94
  -8  -5   7    0.28    0.93
   7   5  -7    1.92    1.36
   7   5  -7    2.38    1.38
  -7  -5   7    0.77    0.56
  -7  -5   7    0.94    0.75
  -7  -5   7   -0.26    0.62
  -7  -5   7   -0.56    0.82
   6   5  -7    0.23    1.44
  -6  -5   7   -0.27    0.67
  -6  -5   7    0.84    0.70
  -6  -5   7    0.58    0.82
  -6  -5   7   -0.14    0.50
   5   5  -7   13.22    3.00
   5   5  -7   15.75    1.61
   5   5  -7   13.94    1.22
  -5  -5   7   17.30    1.75
  -5  -5   7   12.18    1.79
  -5  -5   7   17.58    1.67
   4   5  -7    7.38    1.12
   4   5  -7   10.29    1.90
   4   5  -7    8.04    1.99
   4   5  -7    6.27    1.12
  -4  -5   7    7.31    1.29
  -4  -5   7    8.51    1.40
  -4  -5   7    4.59    1.08
  -4  -5   7    7.25    1.44
   3   5  -7   84.64    3.94
   3   5  -7   83.67    4.14
   3   5  -7   76.86    2.61
  -3  -5   7   83.83    3.79
  -3  -5   7   80.24    3.15
  -3  -5   7   76.96    3.49
  -3  -5   7   81.95    3.46
  -3  -5   7   84.83    2.69
   2   5  -7    3.76    1.16
   2   5  -7    3.31    0.93
   2   5  -7    4.82    1.26
   2   5  -7    4.00    0.78
  -2  -5   7    4.12    1.11
  -2  -5   7    3.78    0.85
  -2  -5   7    1.27    0.76
  -2  -5   7    4.98    1.18
   1   5  -7   13.54    1.83
   1   5  -7   16.29    1.25
  -1  -5   7   19.13    1.78
  -1  -5   7   17.17    1.67
  -1  -5   7   16.94    1.26
  -1  -5   7   16.12    1.64
   0   5  -7   11.22    1.69
   0   5  -7   10.71    1.78
   0   5  -7    6.60    1.08
   0  -5   7   10.03    1.64
   0  -5   7    8.96    1.45
   0  -5   7    8.47    1.69
   0  -5   7    6.82    1.08
   0  -5   7   11.35    1.69
   0  -5   7    9.46    1.45
  -1   5  -7    1.70    0.88
  -1   5  -7    1.43    0.70
  -1   5  -7    1.12    0.69
   1  -5   7    2.27    0.99
   1  -5   7    3.70    0.95
   1  -5   7    0.82    0.79
   1  -5   7    1.61    0.85
  -2   5  -7    0.21    0.73
  -2   5  -7   -0.24    0.54
  -2   5  -7    0.46    0.90
  -2   5  -7    0.24    0.64
   2  -5   7    0.44    0.71
   2  -5   7    0.28    0.55
   2  -5   7    0.28    0.48
   2  -5   7    0.73    1.03
  -3   5  -7   -0.29    0.94
  -3   5  -7    0.02    0.52
  -3   5  -7   -0.30    0.68
  -3   5  -7    1.71    0.91
  -3   5  -7   -1.20    0.65
   3  -5   7    0.42    0.72
   3  -5   7    1.05    0.75
   3  -5   7    0.56    0.51
   3  -5   7   -0.29    0.84
  -4   5  -7    6.70    1.59
  -4   5  -7   11.02    2.18
  -4   5  -7    9.64    1.55
  -4   5  -7   13.14    2.12
   4  -5   7    9.08    1.37
   4  -5   7    6.68    1.72
   4  -5   7    9.12    1.92
   4  -5   7    9.96    2.15
  -5   5  -7   12.79    2.30
  -5   5  -7   13.13    2.26
  -5   5  -7   13.54    1.98
  -5   5  -7   14.91    2.40
   5  -5   7   12.05    1.57
   5  -5   7   17.44    2.48
   5  -5   7   10.62    2.19
   5  -5   7   12.61    2.26
  -6   5  -7    8.05    1.95
  -6   5  -7    4.09    1.23
  -6   5  -7    4.79    1.61
  -6   5  -7    4.78    1.77
   6  -5   7    5.42    1.56
   6  -5   7    9.21    2.32
   6  -5   7    9.18    1.98
   6  -5   7    7.04    1.06
  -7   5  -7    0.38    0.96
  -7   5  -7   -0.32    0.91
  -7   5  -7    2.42    1.53
  -7   5  -7    1.14    1.33
   7  -5   7    1.54    1.07
   7  -5   7   -1.18    1.25
   7  -5   7    0.23    1.30
   7  -5   7   -0.38    0.51
   8   4  -7    3.59    1.78
   8   4  -7    4.31    2.09
  -8  -4   7    3.58    1.05
  -8  -4   7    3.02    1.46
  -8  -4   7    2.32    0.91
   7   4  -7   -1.12    1.13
  -7  -4   7    0.56    0.71
  -7  -4   7    0.51    0.78
  -7  -4   7    1.04    0.83
  -7  -4   7    0.66    0.99
   6   4  -7    3.67    0.95
   6   4  -7    4.97    1.61
   6   4  -7    8.51    1.94
  -6  -4   7    4.48    1.12
  -6  -4   7    6.50    1.32
  -6  -4   7    7.58    1.82
  -6  -4   7    7.05    1.39
   5   4  -7   28.88    2.17
   5   4  -7   26.69    2.04
  -5  -4   7   31.88    2.17
  -5  -4   7   31.07    2.26
  -5  -4   7   35.08    2.35
   4   4  -7   22.76    2.87
   4   4  -7   19.66    1.51
  -4  -4   7   17.07    1.76
  -4  -4   7   20.22    1.82
  -4  -4   7   18.81    1.65
  -4  -4   7   18.29    1.69
   3   4  -7   30.48    1.95
   3   4  -7   33.25    1.51
   3   4  -7   30.84    2.23
   3   4  -7   33.24    2.68
   3   4  -7   30.82    2.00
  -3  -4   7   29.20    1.97
  -3  -4   7   36.07    2.34
  -3  -4   7   32.53    1.22
  -3  -4   7   33.52    2.17
   2   4  -7    7.30    1.55
   2   4  -7    4.07    0.40
   2   4  -7    4.56    1.08
   2   4  -7    3.97    0.88
   2   4  -7    4.77    1.02
  -2  -4   7    4.77    1.19
  -2  -4   7    3.54    1.15
  -2  -4   7    3.39    0.96
  -2  -4   7    5.38    1.03
   1   4  -7   63.47    3.10
   1   4  -7   62.38    2.86
   1   4  -7   59.93    2.59
  -1  -4   7   63.24    2.93
  -1  -4   7   65.57    3.61
  -1  -4   7   58.57    2.89
  -1  -4   7   60.78    2.57
  -1  -4   7   63.35    3.09
   0   4  -7    4.94    1.03
   0   4  -7    6.32    1.30
   0   4  -7    5.07    1.27
   0   4  -7    7.03    0.61
   0   4  -7    8.21    1.25
   0  -4   7    6.98    1.28
   0  -4   7    6.79    1.28
   0  -4   7    8.36    1.22
   0  -4   7    6.79    1.42
   0  -4   7    4.52    1.09
   0  -4   7    5.77    1.14
   0  -4   7    6.43    1.29
  -1   4  -7    0.35    0.50
  -1   4  -7   -0.27    0.56
  -1   4  -7    0.53    0.69
  -1   4  -7   -0.44    0.30
  -1   4  -7    0.25    0.58
  -1   4  -7    0.40    0.41
   1  -4   7    0.87    0.53
   1  -4   7   -0.23    0.60
   1  -4   7    0.43    0.61
   1  -4   7    0.49    0.63
   1  -4   7    0.56    0.67
   1  -4   7    0.56    0.64
  -2   4  -7   93.81    4.32
  -2   4  -7   96.65    3.44
  -2   4  -7   94.38    3.98
  -2   4  -7   97.29    3.66
  -2   4  -7   93.18    3.44
  -2   4  -7  103.01    4.10
  -2   4  -7   95.26    4.03
   2  -4   7  105.23    4.26
   2  -4   7   98.24    3.76
   2  -4   7  102.07    3.09
   2  -4   7  102.79    3.70
  -3   4  -7  201.40    7.41
  -3   4  -7  201.96    6.22
  -3   4  -7  194.06    5.39
  -3   4  -7  196.77    5.88
  -3   4  -7  195.96    5.31
  -3   4  -7  186.47    6.10
  -3   4  -7  205.95    6.92
   3  -4   7  202.44    6.90
   3  -4   7  203.67    6.30
   3  -4   7  193.25    5.29
   3  -4   7  181.80    6.06
   3  -4   7  192.94    4.15
  -4   4  -7   96.57    4.31
  -4   4  -7  103.27    4.86
  -4   4  -7   93.48    4.29
  -4   4  -7   94.46    3.67
  -4   4  -7   88.72    3.38
  -4   4  -7   91.79    4.60
   4  -4   7   94.78    4.34
   4  -4   7   93.49    4.89
   4  -4   7   98.07    3.44
   4  -4   7   90.92    4.54
  -5   4  -7   14.63    2.23
  -5   4  -7   16.15    2.61
  -5   4  -7   10.43    1.43
  -5   4  -7   11.37    2.19
   5  -4   7    9.87    2.14
   5  -4   7   10.56    1.28
   5  -4   7   11.19    1.88
   5  -4   7   12.10    2.20
  -6   4  -7   -0.73    1.08
  -6   4  -7   -0.75    0.77
  -6   4  -7    2.93    1.23
   6  -4   7    0.16    0.91
   6  -4   7    1.62    1.35
   6  -4   7    1.34    1.11
  -7   4  -7   -0.16    1.20
  -7   4  -7    0.11    0.97
  -7   4  -7   -0.86    0.94
   7  -4   7    1.29    1.43
   7  -4   7    2.86    1.49
   7  -4   7    0.89    1.27
   8   3  -7    1.11    1.21
   8   3  -7    1.35    1.13
  -8  -3   7    0.50    0.80
  -8  -3   7    0.15    0.67
  -8  -3   7   -0.17    0.96
  -8  -3   7    1.48    1.00
   7   3  -7   -0.47    0.80
   7   3  -7   -0.38    0.62
   7   3  -7    0.85    1.34
  -7  -3   7   -0.71    0.74
  -7  -3   7    0.06    0.60
  -7  -3   7    0.91    0.89
  -7  -3   7    1.76    0.85
   6   3  -7   11.28    1.43
   6   3  -7    8.23    1.61
   6   3  -7    9.24    2.05
  -6  -3   7   11.35    1.95
  -6  -3   7    8.92    1.62
  -6  -3   7    9.02    1.42
  -6  -3   7    7.59    1.38
   5   3  -7   14.06    1.96
   5   3  -7   16.48    1.69
  -5  -3   7   17.34    2.13
  -5  -3   7   16.59    1.67
  -5  -3   7   17.05    1.66
  -5  -3   7   18.41    2.36
   4   3  -7   36.45    2.07
   4   3  -7   31.84    2.76
   4   3  -7   41.94    2.30
   4   3  -7   37.03    2.36
  -4  -3   7   36.80    2.55
  -4  -3   7   32.26    2.38
  -4  -3   7   37.09    2.69
  -4  -3   7   37.30    2.29
   3   3  -7   -0.24    0.69
   3   3  -7    0.43    0.36
   3   3  -7    0.76    0.54
   3   3  -7   -0.34    0.57
  -3  -3   7    0.12    0.60
  -3  -3   7    0.59    0.59
  -3  -3   7   -0.34    0.51
  -3  -3   7   -0.11    0.58
  -3  -3   7    0.85    0.57
   2   3  -7  140.79    4.32
   2   3  -7  128.43    4.32
   2   3  -7  140.54    4.37
   2   3  -7  132.99    4.19
  -2  -3   7  133.21    4.53
  -2  -3   7  137.51    3.17
  -2  -3   7  133.65    4.25
  -2  -3   7  125.22    4.29
  -2  -3   7  136.18    4.46
  -2  -3   7  126.91    4.74
   1   3  -7    1.25    0.68
   1   3  -7    0.47    0.76
   1   3  -7    0.99    0.63
   1   3  -7    0.87    0.55
   1   3  -7    0.89    0.55
  -1  -3   7    1.47    0.72
  -1  -3   7    1.33    0.55
  -1  -3   7    1.30    0.53
  -1  -3   7    1.47    0.68
  -1  -3   7    1.33    0.82
  -1  -3   7    0.72    0.60
  -1  -3   7    1.40    0.74
   0   3  -7   44.37    1.89
   0   3  -7   42.47    2.39
   0   3  -7   40.19    2.31
   0   3  -7   43.21    2.55
   0   3  -7   42.21    1.96
   0   3  -7   40.74    2.23
   0  -3   7   41.46    1.98
   0  -3   7   42.21    2.34
   0  -3   7   41.82    2.53
   0  -3   7   43.31    2.34
   0  -3   7   41.68    2.22
   0  -3   7   40.22    2.49
   0  -3   7   35.41    2.26
  -1   3  -7    0.58    0.69
  -1   3  -7    1.12    0.68
  -1   3  -7    0.29    0.39
  -1   3  -7    1.00    0.62
  -1   3  -7    0.84    0.55
  -1   3  -7    0.23    0.62
   1  -3   7   -0.29    0.65
   1  -3   7    0.56    0.57
   1  -3   7    1.16    0.69
   1  -3   7    0.60    0.57
   1  -3   7    0.82    0.62
  -2   3  -7   60.28    2.74
  -2   3  -7   60.36    3.04
  -2   3  -7   68.15    2.45
  -2   3  -7   60.21    2.87
  -2   3  -7   57.32    3.75
  -2   3  -7   65.12    3.03
   2  -3   7   56.12    3.23
   2  -3   7   69.25    2.86
   2  -3   7   69.92    3.29
   2  -3   7   62.00    2.20
   2  -3   7   56.92    2.73
   2  -3   7   66.50    3.23
  -3   3  -7   71.14    2.87
  -3   3  -7   57.89    3.16
  -3   3  -7   66.74    2.57
  -3   3  -7   70.65    3.74
  -3   3  -7   61.35    3.28
  -3   3  -7   64.56    3.17
  -3   3  -7   65.47    3.75
   3  -3   7   68.97    3.72
   3  -3   7   70.17    2.85
   3  -3   7   63.83    3.26
   3  -3   7   58.07    3.53
  -4   3  -7   14.22    2.05
  -4   3  -7   11.39    1.78
  -4   3  -7   13.29    1.35
  -4   3  -7   14.33    2.41
  -4   3  -7   17.14    1.45
  -4   3  -7   14.68    2.23
   4  -3   7   12.68    1.26
   4  -3   7   16.29    2.52
   4  -3   7   15.73    2.48
   4  -3   7   13.87    2.00
  -5   3  -7    2.46    1.18
  -5   3  -7    0.37    0.86
  -5   3  -7   -0.59    0.58
  -5   3  -7    0.99    0.81
  -5   3  -7    0.83    1.18
   5  -3   7    1.18    0.56
   5  -3   7   -0.04    0.73
   5  -3   7    0.72    0.87
  -6   3  -7    2.00    1.31
  -6   3  -7    3.67    1.18
  -6   3  -7    4.30    1.34
   6  -3   7    4.27    1.48
   6  -3   7    4.36    1.63
   6  -3   7    3.56    1.18
  -7   3  -7   -0.37    1.11
  -7   3  -7   -0.29    1.02
  -7   3  -7   -0.63    0.84
   7  -3   7    0.80    1.54
   7  -3   7    2.30    1.43
   7  -3   7   -0.94    1.09
   9   2  -7    0.85    1.31
   9   2  -7    1.29    1.23
  -9  -2   7    0.36    0.93
  -9  -2   7    0.87    1.23
   8   2  -7   -0.46    1.20
   8   2  -7    0.36    1.41
   8   2  -7   -0.50    0.99
  -8  -2   7    0.14    1.05
  -8  -2   7    1.11    0.82
  -8  -2   7   -0.06    0.92
   7   2  -7    6.21    1.55
   7   2  -7    3.03    1.17
   7   2  -7    4.36    1.85
  -7  -2   7    6.10    1.40
  -7  -2   7    3.71    1.31
  -7  -2   7    4.28    1.20
   6   2  -7   36.58    2.76
   6   2  -7   36.87    3.23
  -6  -2   7   35.38    2.56
  -6  -2   7   37.93    2.55
  -6  -2   7   29.73    2.35
  -6  -2   7   32.29    2.57
   5   2  -7    0.23    0.50
   5   2  -7    0.67    1.05
   5   2  -7    0.27    0.76
  -5  -2   7    0.29    0.57
  -5  -2   7    1.23    0.75
  -5  -2   7    0.66    0.62
  -5  -2   7    0.96    0.76
   4   2  -7   -0.04    0.61
   4   2  -7    0.25    0.60
   4   2  -7    0.02    0.43
   4   2  -7   -0.23    0.60
   4   2  -7   -0.84    0.57
  -4  -2   7    1.18    0.70
  -4  -2   7    0.64    0.70
  -4  -2   7    0.11    0.52
  -4  -2   7    0.55    0.64
   3   2  -7   54.14    3.28
   3   2  -7   50.56    2.53
  -3  -2   7   49.83    2.70
  -3  -2   7   52.48    2.64
  -3  -2   7   55.29    2.65
  -3  -2   7   54.82    2.87
   2   2  -7    6.11    1.11
   2   2  -7    9.91    1.54
   2   2  -7    6.43    1.23
   2   2  -7    6.17    1.12
  -2  -2   7    5.89    0.80
  -2  -2   7    6.04    1.09
  -2  -2   7    4.82    1.05
  -2  -2   7    6.46    1.21
  -2  -2   7    5.98    1.17
  -2  -2   7    7.96    1.31
   1   2  -7   26.88    2.01
   1   2  -7   26.93    1.52
   1   2  -7   27.81    1.78
   1   2  -7   30.14    2.02
   1   2  -7   26.54    2.13
  -1  -2   7   26.13    1.89
  -1  -2   7   25.67    1.51
  -1  -2   7   26.42    1.90
  -1  -2   7   27.12    1.95
  -1  -2   7   24.75    1.74
  -1  -2   7   28.84    1.60
   0   2  -7    3.39    1.00
   0   2  -7    3.40    0.90
   0   2  -7    4.48    0.99
   0   2  -7    3.60    0.75
   0   2  -7    3.75    0.94
   0   2  -7    4.57    1.10
   0  -2   7    4.40    1.04
   0  -2   7    5.05    0.95
   0  -2   7    5.61    1.07
   0  -2   7    4.82    0.79
   0  -2   7    5.64    1.16
   0  -2   7    4.41    0.90
   0  -2   7    5.02    1.18
  -1   2  -7    0.30    0.38
  -1   2  -7   -0.64    0.49
  -1   2  -7    0.57    0.31
  -1   2  -7    1.32    0.76
  -1   2  -7    1.47    0.80
  -1   2  -7    0.22    0.55
   1  -2   7   -0.14    0.48
   1  -2   7    0.46    0.58
   1  -2   7   -0.08    0.55
   1  -2   7    1.31    0.56
   1  -2   7   -0.28    0.63
   1  -2   7    0.34    0.47
  -2   2  -7   77.44    3.79
  -2   2  -7   76.73    3.39
  -2   2  -7   70.62    2.89
  -2   2  -7   79.96    3.57
  -2   2  -7   69.30    2.93
  -2   2  -7   71.89    3.55
  -2   2  -7   76.31    2.16
   2  -2   7   74.27    3.35
   2  -2   7   80.59    3.83
   2  -2   7   73.34    2.85
   2  -2   7   75.93    3.75
   2  -2   7   72.86    2.89
  -3   2  -7   62.66    3.18
  -3   2  -7   76.29    3.19
  -3   2  -7   62.16    3.49
  -3   2  -7   65.32    2.75
  -3   2  -7   72.07    3.85
   3  -2   7   67.45    2.84
   3  -2   7   71.29    2.82
   3  -2   7   63.28    3.19
   3  -2   7   71.52    3.90
  -4   2  -7    9.87    1.71
  -4   2  -7   12.30    2.01
  -4   2  -7   14.06    2.36
  -4   2  -7   11.14    1.10
   4  -2   7   11.78    1.18
   4  -2   7   11.51    2.12
   4  -2   7   12.28    2.31
  -5   2  -7   -0.04    1.10
  -5   2  -7   -1.55    0.54
  -5   2  -7    0.56    0.57
  -5   2  -7   -0.52    0.64
  -5   2  -7    1.14    0.86
   5  -2   7   -0.24    0.68
   5  -2   7    0.06    0.45
   5  -2   7    0.69    1.12
   5  -2   7    0.54    0.84
  -6   2  -7    0.27    1.39
  -6   2  -7    0.81    0.82
  -6   2  -7    0.38    0.52
  -6   2  -7    0.26    0.89
   6  -2   7    0.53    0.91
   6  -2   7    2.21    1.66
   6  -2   7    2.26    1.18
  -7   2  -7    0.08    1.01
  -7   2  -7   -0.70    1.20
  -7   2  -7    0.62    1.07
   7  -2   7    1.36    1.08
   7  -2   7    1.01    1.46
   9   1  -7    0.50    1.24
  -9  -1   7    0.58    0.88
  -9  -1   7    1.96    1.02
   8   1  -7    2.05    1.37
   8   1  -7    1.55    1.19
  -8  -1   7    1.48    0.84
  -8  -1   7   -0.09    0.75
  -8  -1   7   -0.56    1.01
   7   1  -7    2.55    0.93
   7   1  -7    3.16    1.48
   7   1  -7    2.13    1.20
  -7  -1   7    1.32    0.65
  -7  -1   7    2.59    0.93
  -7  -1   7    3.03    1.26
  -7  -1   7    3.74    1.27
   6   1  -7   20.00    2.59
   6   1  -7   21.45    1.94
  -6  -1   7   20.45    2.08
  -6  -1   7   19.82    2.02
  -6  -1   7   22.29    2.06
  -6  -1   7   18.92    1.82
   5   1  -7    6.49    1.26
   5   1  -7    3.94    0.98
   5   1  -7    5.70    1.55
   5   1  -7    3.28    1.11
  -5  -1   7    3.98    1.10
  -5  -1   7    4.73    1.12
  -5  -1   7    5.21    1.17
  -5  -1   7    2.34    0.88
   4   1  -7   67.37    2.96
   4   1  -7   73.50    3.29
   4   1  -7   74.80    3.99
   4   1  -7   73.61    3.51
  -4  -1   7   72.02    3.65
  -4  -1   7   76.21    3.10
  -4  -1   7   79.13    3.56
  -4  -1   7   78.02    3.41
  -4  -1   7   78.44    3.49
   3   1  -7   19.01    1.61
   3   1  -7   19.69    1.64
   3   1  -7   18.26    1.75
   3   1  -7   20.12    1.69
  -3  -1   7   19.59    1.73
  -3  -1   7   19.73    1.60
  -3  -1   7   20.70    1.84
  -3  -1   7   21.69    1.90
  -3  -1   7   20.10    1.72
   2   1  -7   40.62    2.48
   2   1  -7   41.44    2.43
   2   1  -7   44.12    2.25
  -2  -1   7   42.02    1.99
  -2  -1   7   44.36    2.30
  -2  -1   7   41.68    1.73
  -2  -1   7   42.22    2.53
  -2  -1   7   45.23    2.54
  -2  -1   7   45.43    2.45
   1   1  -7   -0.30    0.30
   1   1  -7   -0.18    0.43
   1   1  -7   -0.27    0.49
   1   1  -7    0.71    0.45
   1   1  -7   -0.19    0.38
  -1  -1   7    0.45    0.49
  -1  -1   7    0.28    0.46
  -1  -1   7   -0.03    0.59
  -1  -1   7   -0.26    0.34
  -1  -1   7   -0.36    0.28
  -1  -1   7   -0.03    0.67
   0   1  -7   40.44    2.24
   0   1  -7   44.49    2.49
   0   1  -7   38.24    2.24
   0   1  -7   43.15    2.53
   0   1  -7   42.25    2.55
   0   1  -7   37.56    2.08
   0  -1   7   37.12    2.20
   0  -1   7   38.10    2.39
   0  -1   7   43.48    2.24
   0  -1   7   44.74    1.92
   0  -1   7   40.53    2.27
   0  -1   7   42.97    1.40
   0  -1   7   37.59    2.33
  -1   1  -7   69.91    3.32
  -1   1  -7   69.24    3.49
  -1   1  -7   69.47    3.35
  -1   1  -7   65.53    2.95
  -1   1  -7   64.45    2.73
  -1   1  -7   65.39    3.15
   1  -1   7   67.07    2.76
   1  -1   7   61.06    3.16
   1  -1   7   65.77    3.26
   1  -1   7   65.61    3.01
   1  -1   7   68.93    3.04
   1  -1   7   71.12    2.46
  -2   1  -7   98.89    3.24
  -2   1  -7   93.81    3.71
  -2   1  -7   94.87    4.18
  -2   1  -7   98.79    4.06
  -2   1  -7   95.64    4.35
  -2   1  -7   89.19    3.29
   2  -1   7   94.47    3.01
   2  -1   7   96.94    3.37
  -3   1  -7   48.02    2.33
  -3   1  -7   50.41    3.33
  -3   1  -7   45.82    2.92
  -3   1  -7   49.24    2.40
  -3   1  -7   50.77    1.39
  -3   1  -7   51.55    2.82
   3  -1   7   51.37    1.74
   3  -1   7   50.74    2.31
   3  -1   7   50.59    3.40
   3  -1   7   55.57    3.67
   3  -1   7   48.76    2.66
   3  -1   7   51.99    2.37
  -4   1  -7   21.37    1.95
  -4   1  -7   19.53    1.07
  -4   1  -7   17.86    2.76
  -4   1  -7   22.48    1.86
  -4   1  -7   22.03    2.66
   4  -1   7   21.15    3.01
   4  -1   7   17.00    1.37
   4  -1   7   19.61    2.80
   4  -1   7   16.60    1.71
   4  -1   7   17.89    1.59
  -5   1  -7    6.33    1.94
  -5   1  -7    5.48    1.49
  -5   1  -7    5.36    0.89
  -5   1  -7    9.06    1.54
  -5   1  -7    6.23    1.10
  -5   1  -7    7.10    1.44
   5  -1   7    5.89    1.63
   5  -1   7    5.74    1.83
  -6   1  -7    8.03    1.59
  -6   1  -7    7.22    1.94
  -6   1  -7    3.79    0.80
  -6   1  -7    6.72    1.65
   6  -1   7    5.90    1.27
   6  -1   7    6.80    2.25
   6  -1   7    7.00    2.06
  -7   1  -7    0.66    1.03
  -7   1  -7   -0.96    1.25
  -7   1  -7    2.14    1.06
   7  -1   7    3.94    1.78
   9   0  -7    8.74    2.33
   9   0  -7    3.88    1.72
  -9   0   7    4.20    1.36
  -9   0   7    7.18    1.79
   8   0  -7    1.67    1.09
   8   0  -7    1.06    1.24
   8   0  -7    1.16    1.28
   8   0  -7   -0.35    1.12
  -8   0   7   -0.64    0.91
  -8   0   7    0.21    0.80
  -8   0   7    1.50    1.13
   7   0  -7   15.85    2.44
   7   0  -7   13.48    2.71
  -7   0   7   15.24    2.31
  -7   0   7   13.59    2.04
  -7   0   7   15.64    2.34
  -7   0   7   16.81    2.13
   6   0  -7    4.54    1.40
   6   0  -7    4.75    1.28
   6   0  -7    5.86    1.77
  -6   0   7    6.01    1.52
  -6   0   7    5.60    1.44
  -6   0   7    6.11    1.38
   5   0  -7   13.85    1.68
   5   0  -7   13.58    1.79
   5   0  -7   13.80    2.19
   5   0  -7   15.45    2.44
  -5   0   7   12.44    1.86
  -5   0   7   12.28    1.92
  -5   0   7   14.91    1.86
  -5   0   7   14.91    2.01
   4   0  -7   69.05    2.99
   4   0  -7   67.70    4.14
   4   0  -7   80.58    4.09
   4   0  -7   75.43    3.44
  -4   0   7   70.99    3.42
  -4   0   7   69.86    3.09
  -4   0   7   77.19    3.29
  -4   0   7   74.06    3.39
  -4   0   7   70.56    2.99
   3   0  -7   74.94    3.57
   3   0  -7   75.29    3.08
   3   0  -7   79.96    3.49
   3   0  -7   84.72    3.44
  -3   0   7   80.43    3.00
  -3   0   7   77.94    3.13
  -3   0   7   83.39    3.72
  -3   0   7   75.30    3.31
  -3   0   7   84.95    3.14
  -3   0   7   78.99    3.50
   2   0  -7   80.65    2.69
   2   0  -7   81.88    3.33
   2   0  -7   80.99    3.60
   2   0  -7   79.94    3.11
   2   0  -7   80.15    3.42
  -2   0   7   84.20    2.84
  -2   0   7   79.68    3.30
  -2   0   7   81.99    3.49
  -2   0   7   83.10    3.62
  -2   0   7   81.78    3.19
  -2   0   7   81.21    2.65
   1   0  -7   47.55    2.64
   1   0  -7   49.55    2.42
   1   0  -7   51.22    2.90
   1   0  -7   44.94    2.24
   1   0  -7   47.37    2.49
  -1   0   7   46.19    2.64
  -1   0   7   48.20    1.68
  -1   0   7   51.27    2.47
  -1   0   7   50.32    2.56
  -1   0   7   49.91    2.67
  -1   0   7   49.74    2.42
   0   0  -7    5.20    1.20
   0   0  -7    5.20    0.99
   0   0  -7    7.48    1.29
   0   0  -7    6.33    1.30
   0   0  -7    7.07    1.24
   0   0   7    6.53    1.20
   0   0   7    5.84    1.17
   0   0   7    4.85    1.17
   0   0   7    5.38    1.16
   0   0   7    4.31    0.69
   0   0   7    3.51    0.88
  -1   0  -7    9.98    1.34
  -1   0  -7    8.16    1.67
  -1   0  -7    9.74    1.54
  -1   0  -7    9.04    1.36
  -1   0  -7    6.33    1.32
   1   0   7    9.30    1.32
   1   0   7    9.86    0.81
   1   0   7    9.18    1.64
   1   0   7    9.09    1.40
  -2   0  -7   23.17    1.80
  -2   0  -7   21.91    1.94
  -2   0  -7   22.89    1.66
  -2   0  -7   23.54    1.39
  -2   0  -7   22.82    2.33
   2   0   7   26.92    1.81
   2   0   7   25.30    1.32
   2   0   7   24.62    2.29
   2   0   7   25.14    1.51
  -3   0  -7    0.52    0.54
  -3   0  -7    0.62    0.66
  -3   0  -7    2.81    1.17
  -3   0  -7    1.31    0.58
  -3   0  -7    0.71    0.71
   3   0   7    1.08    0.59
   3   0   7    1.39    0.54
   3   0   7    1.15    0.88
   3   0   7    0.20    0.37
  -4   0  -7    3.54    1.36
  -4   0  -7    4.95    1.21
  -4   0  -7    7.28    1.53
  -4   0  -7    5.27    0.56
  -4   0  -7    6.03    1.16
  -4   0  -7    6.55    1.09
   4   0   7    5.93    1.63
   4   0   7    3.43    1.42
   4   0   7    4.15    0.68
  -5   0  -7    0.86    0.48
  -5   0  -7    1.12    0.81
  -5   0  -7    0.43    1.17
  -5   0  -7   -0.17    0.83
  -5   0  -7    0.50    0.91
   5   0   7    3.41    1.44
   5   0   7    2.56    1.28
  -6   0  -7   -1.49    0.82
  -6   0  -7   -1.06    1.08
  -6   0  -7    0.76    0.91
  -6   0  -7   -0.34    0.73
  -6   0  -7   -0.85    0.75
  -6   0  -7   -0.37    1.05
   6   0   7    0.25    0.68
   6   0   7    1.21    1.07
   6   0   7   -1.03    1.00
  -7   0  -7    7.55    2.23
  -7   0  -7   11.19    1.96
  -7   0  -7   12.70    2.01
   7   0   7   13.41    2.75
   7   0   7   10.44    2.79
   9  -1  -7    0.64    1.29
   9  -1  -7    0.00    0.64
   9  -1  -7    1.69    1.29
   9  -1  -7    0.98    1.34
  -9   1   7    1.78    1.07
  -9   1   7    1.46    1.24
   8  -1  -7    0.09    1.16
   8  -1  -7    1.34    1.21
   8  -1  -7    0.17    0.52
  -8   1   7    2.33    1.19
  -8   1   7    1.32    1.43
  -8   1   7    1.61    1.04
   7  -1  -7    8.39    2.01
   7  -1  -7    4.23    1.43
   7  -1  -7    3.14    1.36
  -7   1   7    6.02    1.59
  -7   1   7    7.14    1.62
  -7   1   7    5.36    1.50
   6  -1  -7   38.88    2.72
   6  -1  -7   36.83    1.65
  -6   1   7   42.07    2.82
  -6   1   7   40.00    2.83
  -6   1   7   41.46    2.34
  -6   1   7   38.93    2.82
   5  -1  -7   14.97    2.07
   5  -1  -7   12.28    1.00
   5  -1  -7   11.03    2.11
   5  -1  -7   12.56    2.10
  -5   1   7   15.92    2.03
  -5   1   7   14.06    1.99
  -5   1   7   11.14    1.53
   4  -1  -7   57.63    2.19
   4  -1  -7   62.70    3.42
   4  -1  -7   66.17    3.33
   4  -1  -7   50.46    3.29
  -4   1   7   65.86    2.88
  -4   1   7   53.82    3.54
   3  -1  -7   14.47    1.80
   3  -1  -7   11.13    1.75
   3  -1  -7   11.94    1.08
   3  -1  -7   15.02    1.89
   3  -1  -7   14.01    1.35
  -3   1   7   14.11    1.22
  -3   1   7   14.55    1.93
  -3   1   7   14.99    1.89
  -3   1   7   16.38    2.02
   2  -1  -7   52.04    3.05
   2  -1  -7   54.52    2.57
   2  -1  -7   47.81    2.55
   2  -1  -7   52.53    2.45
   2  -1  -7   49.61    2.75
  -2   1   7   49.01    2.54
  -2   1   7   53.65    2.72
  -2   1   7   50.52    2.89
  -2   1   7   51.12    2.00
  -2   1   7   44.32    2.58
   1  -1  -7   -0.24    0.41
   1  -1  -7   -0.33    0.44
   1  -1  -7    0.57    0.63
   1  -1  -7    0.24    0.62
   1  -1  -7    1.19    0.84
  -1   1   7   -0.25    0.45
  -1   1   7    0.26    0.32
  -1   1   7    0.32    0.49
  -1   1   7   -0.54    0.40
  -1   1   7    0.23    0.49
   0  -1  -7   59.98    2.72
   0  -1  -7   64.08    2.87
   0  -1  -7   66.20    3.63
   0  -1  -7   59.24    3.38
   0  -1  -7   67.97    3.21
   0   1   7   65.65    2.88
   0   1   7   58.35    2.74
   0   1   7   64.82    1.68
   0   1   7   67.31    3.35
  -1  -1  -7   86.95    3.62
  -1  -1  -7   96.14    4.44
  -1  -1  -7   88.62    3.37
  -1  -1  -7   87.10    3.43
   1   1   7   87.16    4.25
   1   1   7   91.17    3.34
   1   1   7   89.35    3.41
   1   1   7   86.23    1.94
   1   1   7   94.13    3.53
  -2  -1  -7  149.56    4.65
  -2  -1  -7  155.38    6.03
  -2  -1  -7  162.27    4.93
  -2  -1  -7  155.42    5.14
   2   1   7  161.86    4.51
   2   1   7  168.20    6.28
   2   1   7  160.75    4.63
  -3  -1  -7   53.09    2.80
  -3  -1  -7   51.00    3.62
  -3  -1  -7   49.44    1.98
  -3  -1  -7   54.35    2.94
  -3  -1  -7   48.90    2.98
   3   1   7   54.56    2.37
   3   1   7   51.77    1.93
   3   1   7   52.86    3.71
  -4  -1  -7    1.88    1.23
  -4  -1  -7   -0.26    0.69
  -4  -1  -7    0.06    0.61
  -4  -1  -7   -0.09    0.69
  -4  -1  -7    1.01    0.56
   4   1   7    0.31    0.46
   4   1   7    0.76    0.80
   4   1   7    0.79    0.55
   4   1   7    1.65    0.92
  -5  -1  -7   -0.04    1.08
  -5  -1  -7    1.52    0.83
  -5  -1  -7   -0.22    0.85
  -5  -1  -7    0.15    0.72
  -5  -1  -7   -1.06    0.39
  -5  -1  -7    0.46    0.67
   5   1   7   -0.86    0.96
   5   1   7   -0.88    0.62
   5   1   7   -0.84    1.11
  -6  -1  -7    2.41    1.01
  -6  -1  -7    1.97    0.98
  -6  -1  -7    0.49    1.28
  -6  -1  -7    4.60    1.21
   6   1   7    1.88    1.48
   6   1   7    1.84    1.53
   9  -2  -7    0.91    1.48
   9  -2  -7    0.48    0.86
   9  -2  -7    2.63    1.65
   9  -2  -7   -0.76    1.40
  -9   2   7    1.31    1.18
  -9   2   7    1.03    1.09
   8  -2  -7    0.74    1.19
   8  -2  -7    1.11    1.21
   8  -2  -7    0.89    0.63
  -8   2   7    1.35    0.85
  -8   2   7    2.80    1.15
   7  -2  -7    3.09    1.34
   7  -2  -7    2.97    1.31
   7  -2  -7    2.64    1.16
  -7   2   7    4.01    1.42
  -7   2   7    3.00    1.13
   6  -2  -7   42.80    3.26
   6  -2  -7   40.24    2.21
   6  -2  -7   41.25    3.19
   6  -2  -7   45.08    3.05
  -6   2   7   43.96    2.84
  -6   2   7   42.29    3.08
   5  -2  -7    3.04    1.22
   5  -2  -7    3.75    1.43
   5  -2  -7    3.98    0.89
   5  -2  -7    3.50    1.06
  -5   2   7    3.71    1.05
  -5   2   7    3.46    1.20
  -5   2   7    2.02    1.00
   4  -2  -7  181.95    6.23
   4  -2  -7  167.75    4.81
   4  -2  -7  166.67    6.00
   4  -2  -7  181.27    5.82
  -4   2   7  178.90    4.95
  -4   2   7  168.53    5.94
  -4   2   7  162.39    5.63
  -4   2   7  170.66    5.65
   3  -2  -7   38.31    2.18
   3  -2  -7   38.06    2.54
   3  -2  -7   36.85    2.73
   3  -2  -7   33.46    2.30
  -3   2   7   37.02    1.84
  -3   2   7   33.92    2.35
  -3   2   7   33.53    2.38
   2  -2  -7    0.94    0.71
   2  -2  -7   -0.16    0.53
   2  -2  -7    0.13    0.55
   2  -2  -7    0.76    0.83
  -2   2   7    0.40    0.53
  -2   2   7   -0.26    0.26
   1  -2  -7    8.11    1.77
   1  -2  -7   11.65    1.79
   1  -2  -7    8.06    1.45
   1  -2  -7   11.52    1.55
  -1   2   7   10.48    0.59
  -1   2   7   12.90    1.90
  -1   2   7   10.92    1.56
   0  -2  -7    3.81    1.30
   0  -2  -7    2.73    0.87
   0  -2  -7    5.27    1.10
   0   2   7    2.75    0.87
   0   2   7    2.67    0.79
   0   2   7    3.72    0.32
   0   2   7    3.36    1.23
  -1  -2  -7   10.09    1.56
  -1  -2  -7    7.40    1.61
  -1  -2  -7   12.81    1.66
   1   2   7    8.73    1.79
   1   2   7   12.17    1.24
   1   2   7    7.53    1.28
  -2  -2  -7   13.89    1.85
  -2  -2  -7   14.06    2.35
   2   2   7   15.62    1.55
   2   2   7   20.94    2.83
  -3  -2  -7    7.03    1.85
  -3  -2  -7    6.09    1.08
  -3  -2  -7    5.12    1.14
   3   2   7    5.15    1.00
   3   2   7    6.65    1.17
   3   2   7    5.64    1.73
  -4  -2  -7    0.59    0.75
  -4  -2  -7   -0.67    0.48
  -4  -2  -7    0.48    0.44
  -4  -2  -7    0.32    1.15
   4   2   7   -0.02    0.57
   4   2   7    0.90    0.59
   4   2   7   -1.10    0.90
  -5  -2  -7    1.40    0.75
  -5  -2  -7    1.29    0.87
  -5  -2  -7    2.62    1.44
  -5  -2  -7    2.38    0.73
   5   2   7    1.32    0.69
   5   2   7    2.24    1.08
  -6  -2  -7    0.17    1.26
  -6  -2  -7    0.47    0.72
   6   2   7   -0.93    1.27
   9  -3  -7    0.98    1.29
   9  -3  -7   -0.65    1.11
  -9   3   7    1.92    1.26
  -9   3   7    1.48    1.33
   8  -3  -7    9.81    2.15
   8  -3  -7    3.85    1.67
   8  -3  -7    3.76    1.59
  -8   3   7    4.33    1.58
  -8   3   7    1.00    1.11
   7  -3  -7    6.61    1.67
   7  -3  -7    6.74    1.81
  -7   3   7    7.43    1.69
  -7   3   7    4.92    1.52
   6  -3  -7    8.84    1.45
   6  -3  -7    8.37    1.94
   6  -3  -7   10.83    1.95
   6  -3  -7    8.59    1.94
  -6   3   7   10.44    1.71
  -6   3   7   12.06    2.13
   5  -3  -7   20.66    2.22
   5  -3  -7   21.66    3.02
   5  -3  -7   23.93    2.40
  -5   3   7   25.49    2.01
  -5   3   7   24.88    2.33
   4  -3  -7   17.73    2.39
   4  -3  -7   19.47    2.51
   4  -3  -7   16.67    1.74
  -4   3   7   15.31    1.39
  -4   3   7   19.77    2.02
   3  -3  -7   12.77    1.97
   3  -3  -7   12.78    1.90
   3  -3  -7   12.86    1.77
   3  -3  -7   14.51    2.02
  -3   3   7   12.68    1.06
  -3   3   7   14.45    1.87
   2  -3  -7   33.17    2.31
   2  -3  -7   29.94    2.31
   2  -3  -7   29.10    2.30
   2  -3  -7   29.98    2.48
  -2   3   7   34.22    2.25
  -2   3   7   26.99    2.22
   1  -3  -7    1.27    0.78
   1  -3  -7    0.89    0.69
   1  -3  -7    2.13    1.10
  -1   3   7    1.49    0.75
  -1   3   7    0.58    0.53
   0  -3  -7    1.97    1.13
   0  -3  -7    3.39    1.07
   0  -3  -7    4.07    1.04
   0   3   7    3.26    0.98
   0   3   7    1.97    1.10
   0   3   7    3.28    0.89
   0   3   7    2.74    0.52
  -1  -3  -7   31.54    2.20
  -1  -3  -7   26.70    1.89
  -1  -3  -7   27.19    2.55
   1   3   7   28.30    2.59
   1   3   7   27.40    2.58
  -2  -3  -7  121.92    4.37
  -2  -3  -7  121.79    4.21
  -2  -3  -7  116.23    5.49
   2   3   7  125.88    5.97
   2   3   7  114.45    3.59
  -3  -3  -7   13.68    2.50
  -3  -3  -7   16.01    1.64
  -3  -3  -7   14.49    1.49
   3   3   7   13.50    2.64
   3   3   7   14.51    1.17
  -4  -3  -7    2.80    0.63
  -4  -3  -7    2.21    1.57
  -4  -3  -7    5.26    1.19
   4   3   7    0.98    1.00
  -5  -3  -7    0.41    0.78
  -5  -3  -7    1.61    0.87
  -5  -3  -7    1.43    0.60
  -5  -3  -7    1.99    1.46
   5   3   7   -0.23    0.69
   9  -4  -7    2.06    1.46
   9  -4  -7   -2.10    1.46
   9  -4  -7    0.01    1.14
  -9   4   7    0.74    1.35
  -9   4   7    0.13    1.26
   8  -4  -7    5.90    1.70
   8  -4  -7   12.84    2.64
   8  -4  -7   11.01    2.31
  -8   4   7    8.91    1.94
  -8   4   7   10.89    1.95
   7  -4  -7    1.63    1.30
   7  -4  -7    0.64    0.97
  -7   4   7    1.15    0.86
  -7   4   7   -0.65    0.91
   6  -4  -7   30.77    2.64
   6  -4  -7   33.30    3.02
   6  -4  -7   29.33    2.57
  -6   4   7   34.92    2.58
  -6   4   7   32.09    2.90
   5  -4  -7    1.63    0.89
   5  -4  -7    1.30    0.89
   5  -4  -7    0.27    0.83
  -5   4   7    0.07    0.74
  -5   4   7    0.27    0.92
   4  -4  -7   23.82    2.22
   4  -4  -7   25.00    2.35
   4  -4  -7   22.86    2.90
  -4   4   7   19.71    2.05
  -4   4   7   26.96    2.46
  -4   4   7   23.07    1.63
   3  -4  -7    0.13    0.63
   3  -4  -7   -1.11    0.68
   3  -4  -7   -0.53    0.65
  -3   4   7   -0.39    0.35
  -3   4   7    0.61    0.43
  -3   4   7    0.35    0.75
   2  -4  -7   43.71    2.88
   2  -4  -7   45.00    2.79
   2  -4  -7   45.79    3.14
  -2   4   7   48.50    3.02
  -2   4   7   46.90    2.74
  -2   4   7   43.54    1.49
   1  -4  -7   50.49    3.28
   1  -4  -7   56.45    3.08
   1  -4  -7   49.91    2.79
  -1   4   7   49.88    3.11
  -1   4   7   55.25    2.36
  -1   4   7   49.67    2.68
   0  -4  -7    0.64    0.76
   0  -4  -7    0.27    0.67
   0  -4  -7    0.74    1.00
   0   4   7   -0.65    0.32
   0   4   7    0.87    0.97
   0   4   7   -0.01    0.33
   0   4   7   -0.14    0.72
  -1  -4  -7   13.72    1.87
  -1  -4  -7   12.78    1.76
  -1  -4  -7   16.44    2.58
   1   4   7   18.72    1.95
   1   4   7   14.81    1.53
   1   4   7   10.34    2.25
  -2  -4  -7   27.13    2.69
  -2  -4  -7   26.76    1.99
  -2  -4  -7   34.37    2.29
   2   4   7   29.34    2.34
   2   4   7   29.51    3.06
  -3  -4  -7    3.76    1.10
  -3  -4  -7    5.21    1.61
  -3  -4  -7    6.35    1.34
   3   4   7    4.63    1.52
   3   4   7    8.03    1.59
  -4  -4  -7   -0.27    1.08
  -4  -4  -7   -0.96    0.61
  -4  -4  -7    0.46    0.64
   4   4   7    0.09    0.90
   4   4   7    0.96    1.10
  -5  -4  -7    2.97    0.89
  -5  -4  -7    3.14    1.71
  -5  -4  -7    3.83    0.96
   5   4   7    4.39    1.64
   5   4   7    0.29    1.05
   8  -5  -7    1.24    1.08
   8  -5  -7    2.48    1.48
   8  -5  -7    2.29    1.39
  -8   5   7    1.16    1.12
  -8   5   7    0.62    1.25
  -8   5   7    2.36    1.27
   7  -5  -7   13.22    2.33
  -7   5   7    7.64    1.92
  -7   5   7   10.09    1.74
  -7   5   7   11.66    2.48
   6  -5  -7    1.18    1.12
   6  -5  -7    2.31    1.24
   6  -5  -7    1.73    1.22
  -6   5   7    1.41    0.84
  -6   5   7    1.02    0.94
  -6   5   7    2.11    0.97
   5  -5  -7   18.24    2.58
   5  -5  -7   21.31    2.91
   5  -5  -7   25.75    2.39
  -5   5   7   23.75    2.95
  -5   5   7   21.16    1.83
  -5   5   7   22.62    2.30
   4  -5  -7    4.49    1.53
   4  -5  -7    2.09    1.22
   4  -5  -7    2.25    1.03
  -4   5   7    3.63    1.29
  -4   5   7    4.05    0.90
  -4   5   7    3.33    1.21
   3  -5  -7    3.09    1.16
   3  -5  -7    1.23    0.95
   3  -5  -7    1.32    0.98
  -3   5   7    1.02    0.76
  -3   5   7    2.07    0.92
  -3   5   7    2.45    0.68
   2  -5  -7   -0.89    0.85
   2  -5  -7    0.61    0.73
   2  -5  -7    1.22    0.88
  -2   5   7   -0.54    0.63
  -2   5   7    0.88    0.72
  -2   5   7    0.06    0.59
   1  -5  -7    0.07    0.62
   1  -5  -7    0.83    0.91
   1  -5  -7   -0.10    0.90
  -1   5   7   -0.29    0.46
  -1   5   7    0.59    0.67
  -1   5   7    1.19    0.60
   0  -5  -7    3.84    1.10
   0  -5  -7    3.48    1.32
   0  -5  -7    2.95    0.93
   0   5   7    2.51    0.76
   0   5   7    2.56    1.12
  -1  -5  -7   29.77    2.85
  -1  -5  -7   24.97    2.05
  -1  -5  -7   24.45    1.95
   1   5   7   25.14    1.53
   1   5   7   24.02    2.30
   1   5   7   22.94    2.28
  -2  -5  -7   11.80    2.21
  -2  -5  -7   16.28    1.66
  -2  -5  -7   13.57    1.73
   2   5   7   13.89    2.60
   2   5   7   15.07    2.27
  -3  -5  -7    1.34    0.74
  -3  -5  -7    3.37    1.46
  -3  -5  -7    3.40    0.88
   3   5   7    2.36    1.16
   3   5   7    2.82    1.08
  -4  -5  -7    1.79    0.85
  -4  -5  -7    2.96    1.57
  -4  -5  -7    2.48    0.91
   4   5   7    4.12    2.02
   4   5   7    1.40    1.10
   8  -6  -7    2.34    1.53
   8  -6  -7    2.65    1.56
  -8   6   7    0.74    1.28
  -8   6   7    1.22    0.98
  -8   6   7    2.38    1.45
   7  -6  -7    0.69    1.23
   7  -6  -7   -2.00    0.95
  -7   6   7   -0.56    0.90
  -7   6   7   -0.10    0.80
  -7   6   7   -0.06    0.92
   6  -6  -7    2.01    1.14
   6  -6  -7    0.24    1.16
   6  -6  -7    0.38    1.03
  -6   6   7    1.43    0.79
  -6   6   7    1.02    1.10
  -6   6   7    0.98    1.21
   5  -6  -7   16.95    2.50
   5  -6  -7   14.72    2.08
   5  -6  -7   12.92    2.21
  -5   6   7   14.23    2.16
  -5   6   7   16.16    1.94
   4  -6  -7    0.68    0.97
   4  -6  -7    1.05    0.99
   4  -6  -7    2.80    1.42
   4  -6  -7    2.65    0.85
  -4   6   7    2.87    0.90
  -4   6   7    3.55    1.33
  -4   6   7    2.72    1.30
   3  -6  -7    0.26    0.86
   3  -6  -7   -0.02    1.15
   3  -6  -7    0.70    0.84
  -3   6   7    0.12    0.82
  -3   6   7    0.24    0.51
  -3   6   7   -0.74    0.91
  -3   6   7    1.86    1.04
   2  -6  -7   14.25    2.06
   2  -6  -7   13.92    2.12
   2  -6  -7   11.23    2.07
  -2   6   7   12.08    1.76
  -2   6   7   13.26    1.99
  -2   6   7   12.22    2.16
   1  -6  -7    1.39    1.14
   1  -6  -7    1.48    1.06
   1  -6  -7    1.98    0.91
  -1   6   7    1.01    0.78
  -1   6   7    0.72    0.61
  -1   6   7    2.40    1.02
   0  -6  -7    1.35    0.82
   0  -6  -7    0.37    0.78
   0  -6  -7    0.67    1.06
   0   6   7    1.49    0.97
   0   6   7    0.10    0.72
   0   6   7    0.70    0.67
  -1  -6  -7    3.59    1.03
  -1  -6  -7    0.14    0.75
  -1  -6  -7   -1.75    0.89
   1   6   7   -0.87    0.85
   1   6   7    1.34    0.78
   1   6   7    1.79    0.71
  -2  -6  -7    5.03    1.06
  -2  -6  -7    6.19    2.01
  -2  -6  -7    5.85    1.17
   2   6   7    6.42    1.71
  -3  -6  -7    0.61    0.76
  -3  -6  -7    3.22    1.63
  -3  -6  -7    0.68    0.70
   3   6   7    2.80    1.49
   7  -7  -7   10.04    1.88
   7  -7  -7   11.82    2.43
  -7   7   7    9.19    2.39
  -7   7   7    5.34    1.50
  -7   7   7    9.21    2.22
   6  -7  -7   -1.99    0.75
   6  -7  -7   -0.86    0.95
   6  -7  -7    0.09    0.82
  -6   7   7    0.45    0.89
  -6   7   7   -1.42    0.88
  -6   7   7    1.65    1.36
   5  -7  -7   -0.13    0.88
   5  -7  -7    0.31    0.94
  -5   7   7    1.39    1.06
  -5   7   7    0.59    0.86
  -5   7   7    0.78    1.28
   4  -7  -7    2.09    0.98
   4  -7  -7    1.89    1.18
   4  -7  -7    0.03    0.88
   4  -7  -7    0.94    0.86
  -4   7   7    2.69    1.29
  -4   7   7    0.73    0.74
  -4   7   7   -0.40    0.81
  -4   7   7   -0.81    0.47
   3  -7  -7    1.90    1.15
   3  -7  -7    0.75    0.98
   3  -7  -7   -1.49    1.08
  -3   7   7    1.57    0.88
  -3   7   7    0.11    0.51
  -3   7   7   -0.08    0.82
  -3   7   7    1.00    1.06
   2  -7  -7   -0.13    0.65
   2  -7  -7    2.37    1.37
   2  -7  -7   -0.89    1.09
  -2   7   7    2.05    1.30
  -2   7   7   -0.81    0.79
   1  -7  -7    0.43    0.93
   1  -7  -7    1.34    0.93
   1  -7  -7    1.25    0.97
  -1   7   7    2.68    1.35
  -1   7   7    1.21    0.92
  -1   7   7    0.63    1.10
   0  -7  -7    0.77    0.74
   0  -7  -7    1.38    1.11
   0  -7  -7    5.13    2.20
   0   7   7    1.22    0.97
   0   7   7    2.57    1.26
   0   7   7    2.25    1.06
  -1  -7  -7   15.57    2.04
  -1  -7  -7   14.26    2.47
  -1  -7  -7   11.31    1.72
   1   7   7   11.78    2.26
  -2  -7  -7    0.37    0.60
  -2  -7  -7   -1.59    0.98
   2   7   7   -0.43    0.96
   6  -8  -7   -0.96    1.04
   6  -8  -7    0.27    0.98
  -6   8   7    0.25    1.06
  -6   8   7    0.04    1.06
  -6   8   7   -0.23    1.54
   5  -8  -7    8.91    2.01
   5  -8  -7    8.99    1.48
   5  -8  -7    7.04    1.75
  -5   8   7    8.67    1.48
  -5   8   7    5.47    1.78
  -5   8   7   10.45    2.47
  -5   8   7   10.02    1.95
   4  -8  -7    1.96    1.36
   4  -8  -7   -0.06    0.90
   4  -8  -7    0.93    1.08
  -4   8   7    3.05    1.60
  -4   8   7    0.91    1.15
  -4   8   7    1.78    1.39
   3  -8  -7    0.21    1.10
   3  -8  -7    1.06    0.93
  -3   8   7   -0.05    1.10
  -3   8   7   -0.83    0.95
  -3   8   7    0.11    1.20
   2  -8  -7    2.43    0.94
   2  -8  -7    2.25    1.15
  -2   8   7   -0.30    0.99
  -2   8   7    2.41    1.54
  -2   8   7    0.23    1.15
   1  -8  -7    2.95    1.54
   1  -8  -7    3.83    1.19
  -1   8   7    2.95    1.26
  -1   8   7    0.91    0.89
   0  -8  -7   -0.39    0.83
   0   8   7    0.26    1.06
   0   8   7    1.36    1.27
  -1  -8  -7    1.24    1.00
  -1  -8  -7    2.90    1.41
   1   8   7    2.78    1.68
   1   8   7   -0.04    1.04
   4  -9  -7    4.46    1.58
   4  -9  -7    2.63    1.42
  -4   9   7    4.60    1.97
  -4   9   7    3.06    1.56
   3  -9  -7    3.25    1.51
   3  -9  -7    3.70    1.23
   3  -9  -7    3.40    1.24
  -3   9   7    4.00    1.46
  -3   9   7    3.45    1.40
   2  -9  -7    0.01    1.06
   2  -9  -7   -0.77    0.81
  -2   9   7   -0.65    1.31
  -2   9   7    3.63    1.57
   0  11  -8    0.04    1.07
   0 -11   8    1.47    0.95
   0 -11   8    2.51    1.47
  -1  11  -8    2.82    1.73
   1 -11   8    3.24    1.39
   1 -11   8    4.12    1.41
  -2  11  -8    9.62    2.49
  -2  11  -8    9.09    2.78
   2 -11   8   14.23    2.40
   2 -11   8    5.97    1.80
   3  10  -8    7.78    2.05
   3  10  -8    7.46    1.91
  -3 -10   8    7.28    1.52
  -3 -10   8    7.77    1.87
   2  10  -8   -1.93    1.05
   2  10  -8    1.89    1.08
  -2 -10   8    1.55    1.01
  -2 -10   8    0.33    1.18
   1  10  -8    9.39    2.02
   1  10  -8   11.22    1.74
  -1 -10   8    8.92    2.09
  -1 -10   8    6.19    1.56
   0  10  -8    0.86    0.93
   0  10  -8    1.94    1.33
   0  10  -8    2.20    1.55
   0 -10   8    3.29    1.33
   0 -10   8    0.65    0.91
  -1  10  -8    3.73    1.71
  -1  10  -8    6.57    1.96
   1 -10   8    6.09    1.52
   1 -10   8    5.37    1.64
  -2  10  -8    0.22    0.72
  -2  10  -8   -0.40    1.23
   2 -10   8   -0.20    0.88
  -3  10  -8    5.10    1.57
  -3  10  -8    8.67    2.04
  -3  10  -8    5.80    2.07
   3 -10   8    7.35    1.92
   3 -10   8    7.89    1.87
  -4  10  -8    0.71    1.47
  -4  10  -8    0.35    1.05
  -4  10  -8    3.77    1.60
   4 -10   8    1.66    1.19
   4 -10   8    2.11    1.41
   4 -10   8    0.87    0.99
   4   9  -8    0.90    1.17
   4   9  -8   -0.64    0.87
  -4  -9   8   -0.41    0.67
  -4  -9   8    0.07    0.99
   3   9  -8   -0.63    1.01
   3   9  -8    0.41    1.30
  -3  -9   8    0.44    1.12
  -3  -9   8    0.15    0.98
  -3  -9   8    0.06    0.77
   2   9  -8    2.38    1.22
   2   9  -8    3.48    1.82
   2   9  -8    2.23    1.30
  -2  -9   8    0.82    1.19
  -2  -9   8    4.28    1.33
  -2  -9   8    2.93    1.08
   1   9  -8   22.71    2.15
   1   9  -8   18.07    2.26
   1   9  -8   22.40    3.02
  -1  -9   8   22.43    2.25
  -1  -9   8   19.29    2.62
  -1  -9   8   19.30    2.74
   0   9  -8    1.29    1.23
   0   9  -8    1.61    0.89
   0   9  -8    4.70    1.49
   0  -9   8    1.55    1.05
   0  -9   8    0.92    1.10
   0  -9   8    0.55    1.24
  -1   9  -8   -0.29    1.04
  -1   9  -8    2.76    0.96
   1  -9   8    1.73    1.02
   1  -9   8    2.19    1.11
  -2   9  -8    6.55    0.90
  -2   9  -8   10.33    2.15
  -2   9  -8   10.83    1.66
   2  -9   8   11.71    2.08
   2  -9   8   12.63    2.25
  -3   9  -8   14.56    1.48
  -3   9  -8   14.14    2.80
  -3   9  -8   14.13    2.48
   3  -9   8   19.38    2.60
   3  -9   8   18.91    2.85
  -4   9  -8    8.10    2.02
  -4   9  -8   11.47    2.71
  -4   9  -8   13.49    2.59
   4  -9   8    7.45    1.91
   4  -9   8    8.12    1.93
   4  -9   8    9.57    1.56
  -5   9  -8    0.80    1.21
  -5   9  -8   -0.07    1.15
  -5   9  -8    0.42    1.13
   5  -9   8   -1.29    1.43
   5  -9   8    2.47    1.36
   5  -9   8    1.23    1.30
   5   8  -8    4.50    1.82
  -5  -8   8    8.76    1.87
  -5  -8   8    5.70    1.31
   4   8  -8    7.76    1.95
   4   8  -8    9.90    2.29
  -4  -8   8    6.01    0.97
  -4  -8   8    5.94    1.54
  -4  -8   8    8.95    1.53
  -4  -8   8    7.52    1.62
   3   8  -8    8.35    1.93
   3   8  -8    8.63    1.97
  -3  -8   8    9.53    1.59
  -3  -8   8    4.35    1.36
  -3  -8   8    9.19    1.92
   2   8  -8   13.46    2.27
   2   8  -8   13.61    2.15
  -2  -8   8   16.98    2.27
  -2  -8   8   16.71    2.84
   1   8  -8   -0.26    0.84
   1   8  -8   -2.06    0.65
  -1  -8   8   -1.00    0.71
  -1  -8   8    0.87    0.83
  -1  -8   8    0.38    1.08
   0   8  -8   21.99    2.59
   0   8  -8   22.73    2.05
   0   8  -8   18.02    2.69
   0  -8   8   19.98    2.60
   0  -8   8   23.21    2.40
   0  -8   8   17.80    2.37
  -1   8  -8    1.42    1.09
  -1   8  -8    0.29    0.38
  -1   8  -8    1.36    1.09
   1  -8   8   -0.93    1.07
   1  -8   8   -0.38    0.71
   1  -8   8    1.24    1.10
  -2   8  -8   28.47    2.65
   2  -8   8   31.19    2.79
   2  -8   8   28.77    2.53
  -3   8  -8   23.68    3.25
  -3   8  -8   19.04    2.65
  -3   8  -8   25.72    2.05
   3  -8   8   19.92    2.84
   3  -8   8   18.73    1.67
   3  -8   8   22.97    2.30
  -4   8  -8    0.35    1.20
  -4   8  -8    1.20    1.16
  -4   8  -8    1.06    1.05
  -4   8  -8    1.70    1.49
   4  -8   8    1.79    0.96
   4  -8   8    3.10    1.16
  -5   8  -8    0.99    1.23
  -5   8  -8    0.90    1.20
   5  -8   8    3.93    1.40
   5  -8   8    0.06    0.68
   5  -8   8    2.59    1.28
   5  -8   8    2.48    1.16
  -6   8  -8    1.72    0.97
  -6   8  -8   -0.39    1.50
  -6   8  -8    1.52    1.59
  -6   8  -8    2.23    1.24
   6  -8   8    2.08    1.50
   6  -8   8    1.07    0.92
   6  -8   8   -1.04    1.58
   6  -8   8   -0.98    0.95
   6   7  -8   -0.86    1.30
  -6  -7   8    0.11    0.61
  -6  -7   8    2.87    1.04
  -6  -7   8    0.05    1.04
   5   7  -8   10.36    2.42
  -5  -7   8    9.21    1.55
  -5  -7   8    6.02    0.94
  -5  -7   8    6.52    1.33
  -5  -7   8    3.73    1.73
   4   7  -8   12.50    1.44
   4   7  -8   12.48    2.47
   4   7  -8   16.92    2.54
  -4  -7   8   12.19    1.47
  -4  -7   8   16.11    2.05
  -4  -7   8   17.49    2.45
  -4  -7   8   13.03    1.60
   3   7  -8    0.10    0.81
   3   7  -8    0.51    0.75
   3   7  -8    0.55    1.07
  -3  -7   8    1.72    1.00
  -3  -7   8    1.73    0.92
  -3  -7   8   -0.14    0.52
  -3  -7   8    1.74    0.83
  -3  -7   8    1.73    0.82
   2   7  -8    7.41    1.68
   2   7  -8    5.09    1.51
   2   7  -8    6.67    1.40
  -2  -7   8    3.90    0.70
  -2  -7   8    4.04    1.26
  -2  -7   8    7.62    1.69
  -2  -7   8    4.90    1.32
   1   7  -8   29.76    2.46
   1   7  -8   25.67    2.38
   1   7  -8   28.38    2.45
  -1  -7   8   28.45    2.34
  -1  -7   8   27.02    2.47
  -1  -7   8   31.30    2.60
   0   7  -8   16.74    2.33
   0   7  -8   14.43    2.19
   0  -7   8   21.74    2.71
   0  -7   8   12.09    2.14
   0  -7   8   13.30    2.14
  -1   7  -8    4.34    0.89
  -1   7  -8    4.44    1.36
  -1   7  -8    4.89    1.39
   1  -7   8    4.96    1.41
   1  -7   8    6.38    1.51
   1  -7   8    5.78    1.42
  -2   7  -8    0.85    0.92
  -2   7  -8   -0.28    0.82
  -2   7  -8    0.93    0.72
   2  -7   8    1.22    0.83
   2  -7   8    1.52    0.98
  -3   7  -8    0.61    0.84
  -3   7  -8   -0.32    0.88
  -3   7  -8    0.06    0.85
  -3   7  -8   -0.52    1.06
   3  -7   8    0.00    0.76
   3  -7   8    0.11    0.86
   3  -7   8    0.02    0.83
   3  -7   8    2.11    1.25
  -4   7  -8    5.09    1.68
  -4   7  -8    4.87    1.23
  -4   7  -8    8.01    1.66
   4  -7   8    8.42    1.53
   4  -7   8    5.79    1.07
   4  -7   8    6.69    1.69
  -5   7  -8   -0.10    0.72
  -5   7  -8   -0.39    0.80
  -5   7  -8   -0.20    0.98
  -5   7  -8    3.36    1.35
   5  -7   8    0.48    1.14
   5  -7   8   -0.88    0.66
   5  -7   8    2.06    1.13
   5  -7   8   -1.01    0.91
  -6   7  -8    0.13    1.06
  -6   7  -8    3.67    1.63
  -6   7  -8    1.43    1.22
  -6   7  -8    3.54    1.51
   6  -7   8    0.89    1.42
   6  -7   8    0.88    1.00
   6  -7   8    1.92    1.25
   6  -7   8    3.94    1.80
   7   6  -8   -1.21    1.23
   7   6  -8    1.06    1.45
  -7  -6   8   -0.04    1.10
  -7  -6   8    1.14    0.96
  -7  -6   8    2.51    0.85
   6   6  -8    1.15    1.20
   6   6  -8    3.49    1.44
  -6  -6   8    3.10    1.40
  -6  -6   8    3.31    1.11
  -6  -6   8    3.43    1.07
  -6  -6   8    2.68    1.04
   5   6  -8   -0.93    0.64
   5   6  -8    0.84    1.19
   5   6  -8   -0.11    0.71
  -5  -6   8   -0.53    0.77
  -5  -6   8    1.30    0.92
   4   6  -8   29.44    2.65
  -4  -6   8   30.43    2.51
  -4  -6   8   29.61    2.67
  -4  -6   8   28.53    2.21
  -4  -6   8   28.18    1.46
  -4  -6   8   25.71    2.01
   3   6  -8    1.95    0.97
   3   6  -8   -0.80    0.48
   3   6  -8   -0.70    0.76
  -3  -6   8   -0.73    0.78
  -3  -6   8    0.17    0.60
  -3  -6   8    0.58    0.82
  -3  -6   8   -0.02    0.61
  -3  -6   8   -0.73    0.64
   2   6  -8    5.07    0.87
   2   6  -8    4.48    1.42
   2   6  -8    5.94    1.58
  -2  -6   8    4.49    1.13
  -2  -6   8    4.71    0.88
  -2  -6   8    4.41    1.24
  -2  -6   8    5.21    1.39
   1   6  -8   23.20    2.10
   1   6  -8   24.45    2.21
   1   6  -8   22.69    2.19
   1   6  -8   23.22    1.50
  -1  -6   8   23.21    2.66
  -1  -6   8   21.05    1.98
  -1  -6   8   20.59    2.03
  -1  -6   8   19.60    1.42
   0   6  -8   13.64    2.03
   0   6  -8   11.78    1.87
   0   6  -8    9.22    1.28
   0  -6   8   11.34    1.85
   0  -6   8   11.92    1.90
   0  -6   8   12.71    1.96
  -1   6  -8    1.82    0.88
  -1   6  -8    2.37    0.98
  -1   6  -8    0.93    0.73
   1  -6   8    0.55    0.56
   1  -6   8    0.83    0.89
   1  -6   8    1.32    1.03
  -2   6  -8   20.03    1.85
  -2   6  -8   20.82    2.85
  -2   6  -8   18.86    1.87
   2  -6   8   17.17    1.62
   2  -6   8   20.18    1.63
   2  -6   8   21.22    2.71
   2  -6   8   22.49    2.00
  -3   6  -8    7.39    1.77
  -3   6  -8   13.37    1.86
  -3   6  -8    8.19    1.62
  -3   6  -8    7.68    1.82
   3  -6   8    6.78    1.35
   3  -6   8    9.68    1.39
   3  -6   8    8.21    1.80
   3  -6   8    6.38    1.38
  -4   6  -8    4.39    1.68
  -4   6  -8    2.64    1.14
  -4   6  -8    1.79    1.04
  -4   6  -8    2.84    1.24
   4  -6   8    2.21    0.60
   4  -6   8    3.92    1.31
   4  -6   8    1.22    0.94
   4  -6   8    1.41    0.89
   4  -6   8    2.31    1.19
  -5   6  -8    5.99    1.74
  -5   6  -8    6.86    1.63
  -5   6  -8    5.95    1.59
  -5   6  -8    3.29    1.36
   5  -6   8    4.94    1.50
   5  -6   8    3.53    1.54
   5  -6   8    5.57    1.21
   5  -6   8    6.76    1.92
  -6   6  -8   -0.19    0.71
  -6   6  -8    0.48    1.12
  -6   6  -8   -1.24    1.06
  -6   6  -8   -0.37    1.10
   6  -6   8    1.16    0.67
   6  -6   8   -0.93    0.67
   6  -6   8   -0.48    1.02
   6  -6   8   -0.24    1.26
   7   5  -8   -0.60    1.17
   7   5  -8    1.69    1.84
  -7  -5   8   -0.16    1.01
  -7  -5   8    1.56    1.33
  -7  -5   8    0.84    0.78
  -7  -5   8    3.36    0.98
   6   5  -8   -1.10    0.68
   6   5  -8   -0.68    1.22
  -6  -5   8    0.60    0.88
  -6  -5   8    0.46    0.72
  -6  -5   8   -1.61    0.67
  -6  -5   8   -0.31    0.69
   5   5  -8   56.20    2.99
   5   5  -8   53.56    2.70
  -5  -5   8   56.30    3.04
  -5  -5   8   50.71    3.08
   4   5  -8    8.09    2.22
   4   5  -8    5.20    0.91
  -4  -5   8    8.01    1.53
  -4  -5   8    9.69    1.69
  -4  -5   8    7.95    1.48
  -4  -5   8    7.34    1.50
   3   5  -8    1.92    0.31
   3   5  -8    3.45    1.04
   3   5  -8    2.74    0.86
   3   5  -8    3.54    1.33
   3   5  -8    3.31    1.26
  -3  -5   8    0.76    0.46
  -3  -5   8    1.99    1.03
  -3  -5   8    1.33    0.69
  -3  -5   8    3.13    1.01
  -3  -5   8    2.06    0.73
   2   5  -8   47.95    2.77
   2   5  -8   43.92    2.74
   2   5  -8   44.12    3.11
  -2  -5   8   45.22    2.70
  -2  -5   8   40.85    2.69
  -2  -5   8   42.36    2.31
  -2  -5   8   49.04    2.89
   1   5  -8   36.70    2.54
   1   5  -8   37.11    2.86
   1   5  -8   35.22    2.01
  -1  -5   8   33.15    1.99
  -1  -5   8   32.59    2.43
  -1  -5   8   35.09    2.50
  -1  -5   8   32.35    2.38
   0   5  -8    0.58    0.69
   0   5  -8   -0.35    0.48
   0   5  -8   -0.91    0.70
   0  -5   8    0.69    0.74
   0  -5   8   -0.60    0.55
   0  -5   8    0.07    0.50
   0  -5   8    0.09    0.54
  -1   5  -8   -0.23    0.35
  -1   5  -8    0.55    0.60
  -1   5  -8    0.27    0.69
  -1   5  -8    1.28    0.85
   1  -5   8    0.23    0.90
   1  -5   8    0.81    0.74
   1  -5   8   -0.89    0.82
   1  -5   8   -1.16    0.65
   1  -5   8    1.03    0.80
  -2   5  -8   29.90    1.91
  -2   5  -8   33.06    2.51
  -2   5  -8   26.85    2.02
   2  -5   8   27.87    2.44
   2  -5   8   26.15    1.76
   2  -5   8   29.15    2.83
   2  -5   8   28.38    2.04
   2  -5   8   27.74    2.16
  -3   5  -8   69.86    4.16
  -3   5  -8   60.94    3.56
  -3   5  -8   59.80    3.03
  -3   5  -8   62.62    3.57
   3  -5   8   57.65    4.07
   3  -5   8   56.12    3.75
   3  -5   8   61.73    3.37
   3  -5   8   64.01    3.10
   3  -5   8   60.96    2.40
  -4   5  -8    2.78    1.28
  -4   5  -8    2.51    1.02
  -4   5  -8    1.74    1.10
  -4   5  -8    1.05    1.08
   4  -5   8    2.41    1.21
   4  -5   8    1.63    0.58
   4  -5   8    2.25    1.10
   4  -5   8    2.69    0.91
   4  -5   8    1.52    1.03
  -5   5  -8    1.12    0.92
  -5   5  -8    0.09    1.04
  -5   5  -8   -1.27    0.79
  -5   5  -8    0.03    1.13
   5  -5   8   -1.04    0.55
   5  -5   8    0.36    0.96
   5  -5   8    0.39    1.01
  -6   5  -8   -0.79    0.83
  -6   5  -8    0.29    0.96
  -6   5  -8    1.16    1.35
  -6   5  -8    0.39    1.25
   6  -5   8   -2.23    0.94
   6  -5   8    0.49    0.95
   6  -5   8    0.82    1.18
  -7   5  -8   -1.40    0.83
  -7   5  -8   -0.98    1.11
  -7   5  -8    0.03    1.34
  -7   5  -8    0.48    1.58
   7  -5   8    1.37    1.91
   7  -5   8   -0.28    1.10
   7  -5   8   -0.51    1.06
   8   4  -8   -1.78    0.99
  -8  -4   8   -0.55    0.70
  -8  -4   8   -0.06    1.09
  -8  -4   8    0.74    0.87
   7   4  -8    2.99    1.05
   7   4  -8    3.84    1.39
   7   4  -8    2.41    1.54
  -7  -4   8    2.29    0.93
  -7  -4   8    2.02    1.20
  -7  -4   8    3.61    1.20
  -7  -4   8    4.15    1.18
   6   4  -8   14.40    1.91
   6   4  -8   18.61    3.06
  -6  -4   8   14.54    2.02
  -6  -4   8    9.98    1.74
  -6  -4   8   20.08    3.14
  -6  -4   8   17.12    2.06
   5   4  -8   13.87    2.39
   5   4  -8   15.52    1.61
  -5  -4   8   17.36    2.12
  -5  -4   8   15.05    1.89
  -5  -4   8   14.97    2.08
   4   4  -8   89.82    4.66
   4   4  -8   87.54    3.62
  -4  -4   8   85.35    3.91
  -4  -4   8   85.44    3.87
  -4  -4   8   80.30    3.76
  -4  -4   8   90.55    3.81
   3   4  -8   15.63    1.60
   3   4  -8   15.00    1.96
   3   4  -8   15.33    1.07
   3   4  -8   15.32    1.50
   3   4  -8   15.12    2.45
  -3  -4   8   15.24    1.89
  -3  -4   8   17.00    2.11
  -3  -4   8   16.46    2.04
  -3  -4   8   12.61    1.81
  -3  -4   8   16.24    0.75
   2   4  -8   15.47    1.46
   2   4  -8   18.51    1.76
   2   4  -8   15.12    0.90
   2   4  -8   14.68    0.88
   2   4  -8   12.60    2.03
  -2  -4   8   14.56    1.10
  -2  -4   8   14.79    2.00
  -2  -4   8   16.64    1.70
  -2  -4   8   15.04    1.55
  -2  -4   8   19.42    1.79
   1   4  -8    0.16    0.27
   1   4  -8    0.75    0.65
   1   4  -8    0.14    0.54
   1   4  -8    0.70    0.65
  -1  -4   8    0.49    0.65
  -1  -4   8   -0.31    0.79
  -1  -4   8   -0.75    0.42
  -1  -4   8    0.95    0.66
  -1  -4   8    0.42    0.60
  -1  -4   8    1.02    0.52
   0   4  -8    6.99    1.46
   0   4  -8    5.12    1.15
   0   4  -8    4.28    1.03
   0   4  -8    5.30    0.80
   0  -4   8    4.61    0.97
   0  -4   8    5.03    1.41
   0  -4   8    6.23    1.29
   0  -4   8    4.83    1.04
   0  -4   8    4.88    1.12
  -1   4  -8   -0.48    0.33
  -1   4  -8    0.10    0.47
  -1   4  -8    1.87    0.87
  -1   4  -8    0.63    0.54
   1  -4   8   -0.46    0.72
   1  -4   8    0.30    0.77
   1  -4   8    0.85    0.58
   1  -4   8    0.13    0.67
   1  -4   8    0.53    0.68
   1  -4   8    0.18    0.68
  -2   4  -8    2.78    1.22
  -2   4  -8    4.28    1.24
  -2   4  -8    1.58    0.77
  -2   4  -8    2.04    1.02
  -2   4  -8    2.79    0.75
   2  -4   8    2.45    0.83
   2  -4   8    2.66    1.11
   2  -4   8    1.09    0.94
   2  -4   8    3.68    0.99
   2  -4   8    2.56    0.77
  -3   4  -8    9.26    1.36
  -3   4  -8    5.94    1.50
  -3   4  -8    9.90    1.87
  -3   4  -8   10.96    1.80
  -3   4  -8    8.86    1.85
   3  -4   8   10.85    1.85
   3  -4   8   10.01    1.72
   3  -4   8    8.39    1.01
   3  -4   8    8.89    1.82
  -4   4  -8   13.62    1.70
  -4   4  -8   12.75    2.22
  -4   4  -8   11.88    2.03
  -4   4  -8   13.29    2.34
   4  -4   8   12.02    1.94
   4  -4   8   17.02    2.62
   4  -4   8    9.85    1.83
   4  -4   8   13.66    2.47
  -5   4  -8    0.64    0.71
  -5   4  -8   -0.01    1.02
  -5   4  -8    1.08    1.28
  -5   4  -8    1.67    0.98
   5  -4   8    0.74    1.06
   5  -4   8    2.26    1.33
   5  -4   8   -0.20    1.07
  -6   4  -8    1.05    0.89
  -6   4  -8   -0.73    1.03
  -6   4  -8    0.97    1.11
  -6   4  -8    3.31    1.41
   6  -4   8    0.83    0.59
   6  -4   8   -0.59    0.88
   6  -4   8    0.09    1.16
   6  -4   8    0.51    1.30
  -7   4  -8    4.59    1.50
  -7   4  -8    5.42    1.69
  -7   4  -8    3.26    1.65
  -7   4  -8    4.70    1.37
   7  -4   8    7.44    2.50
   7  -4   8    5.03    1.82
   8   3  -8    1.38    1.12
   8   3  -8    0.69    1.38
  -8  -3   8   -0.43    0.60
  -8  -3   8    0.69    0.87
  -8  -3   8    0.61    0.76
   7   3  -8    1.50    1.13
   7   3  -8    1.32    1.26
   7   3  -8    3.88    1.86
  -7  -3   8    2.01    1.24
  -7  -3   8    5.41    1.25
  -7  -3   8    2.84    0.98
  -7  -3   8    3.51    1.26
   6   3  -8    1.73    0.93
   6   3  -8    1.14    1.04
  -6  -3   8    1.75    0.88
  -6  -3   8    2.17    1.00
  -6  -3   8    2.58    0.96
  -6  -3   8    2.55    1.18
   5   3  -8    5.87    1.32
   5   3  -8    4.72    1.13
  -5  -3   8    7.08    1.56
  -5  -3   8    7.01    1.39
  -5  -3   8    6.20    1.35
   4   3  -8   46.25    2.81
   4   3  -8   43.10    2.62
   4   3  -8   41.81    3.17
   4   3  -8   42.96    2.32
  -4  -3   8   40.17    2.69
  -4  -3   8   42.37    2.53
  -4  -3   8   40.74    2.57
   3   3  -8    1.08    0.70
   3   3  -8   -1.27    0.72
   3   3  -8   -0.11    0.50
  -3  -3   8   -0.46    0.61
  -3  -3   8    1.04    0.66
  -3  -3   8    1.85    0.80
  -3  -3   8    0.73    0.68
   2   3  -8  117.95    4.25
   2   3  -8  119.39    4.47
   2   3  -8  116.37    3.97
  -2  -3   8  116.94    4.25
  -2  -3   8  115.49    4.49
  -2  -3   8  116.74    4.04
  -2  -3   8  104.76    4.05
   1   3  -8   31.51    2.31
   1   3  -8   32.15    1.70
   1   3  -8   33.17    1.88
   1   3  -8   31.07    2.15
  -1  -3   8   33.26    2.42
  -1  -3   8   30.20    2.09
  -1  -3   8   31.19    1.81
  -1  -3   8   35.39    2.04
  -1  -3   8   29.38    2.39
  -1  -3   8   32.56    2.27
  -1  -3   8   31.41    2.25
   0   3  -8    2.83    1.03
   0   3  -8    2.27    0.73
   0   3  -8    3.02    1.02
   0   3  -8    2.76    0.73
   0   3  -8    2.08    0.88
   0  -3   8    1.96    0.60
   0  -3   8    2.09    0.85
   0  -3   8    1.73    0.66
   0  -3   8    2.37    0.88
   0  -3   8    1.22    0.70
   0  -3   8    0.93    0.60
  -1   3  -8    0.31    0.51
  -1   3  -8    0.44    0.39
  -1   3  -8    0.72    0.80
  -1   3  -8    1.65    0.94
  -1   3  -8    0.86    0.76
   1  -3   8    0.48    0.68
   1  -3   8    0.73    0.72
   1  -3   8    1.31    0.78
   1  -3   8    1.91    0.69
   1  -3   8    1.63    0.92
  -2   3  -8  108.08    4.20
  -2   3  -8  111.00    4.48
  -2   3  -8  111.05    4.79
  -2   3  -8  109.98    3.18
  -2   3  -8  109.27    4.73
  -2   3  -8  111.54    4.77
   2  -3   8  109.78    3.93
   2  -3   8  111.06    4.80
   2  -3   8  108.67    4.46
   2  -3   8  113.92    4.05
  -3   3  -8   40.04    2.95
  -3   3  -8   38.65    2.60
  -3   3  -8   39.60    3.95
  -3   3  -8   38.34    1.88
  -3   3  -8   37.20    2.60
   3  -3   8   34.52    1.46
   3  -3   8   41.75    3.19
   3  -3   8   42.90    2.39
   3  -3   8   36.07    2.92
   3  -3   8   40.17    2.74
  -4   3  -8    0.61    0.94
  -4   3  -8    0.84    1.39
  -4   3  -8    1.39    0.97
  -4   3  -8   -0.25    0.75
  -4   3  -8    0.64    0.57
  -4   3  -8    0.65    0.72
   4  -3   8    0.81    0.72
   4  -3   8    0.00    0.94
   4  -3   8   -1.20    0.72
  -5   3  -8    0.95    0.70
  -5   3  -8    1.80    0.90
  -5   3  -8    1.77    1.16
  -5   3  -8    1.71    1.31
  -5   3  -8   -1.42    0.72
  -5   3  -8    1.50    1.78
   5  -3   8   -0.50    1.07
   5  -3   8    0.93    0.83
   5  -3   8    0.72    0.64
  -6   3  -8    0.30    0.99
  -6   3  -8    0.12    0.65
  -6   3  -8    0.35    0.97
  -6   3  -8    1.68    1.31
   6  -3   8    0.63    0.96
   6  -3   8   -1.28    0.93
   6  -3   8    0.06    1.20
  -7   3  -8    1.82    1.60
  -7   3  -8    2.07    1.34
  -7   3  -8   -0.44    0.98
  -7   3  -8   -1.32    0.93
   7  -3   8    1.79    1.68
   7  -3   8    1.41    1.70
   9   2  -8    8.98    2.81
   9   2  -8    9.03    2.39
  -9  -2   8    8.28    1.25
  -9  -2   8    7.32    1.86
   8   2  -8    2.02    1.30
   8   2  -8    1.15    1.33
   8   2  -8    1.93    1.19
  -8  -2   8    2.08    1.33
  -8  -2   8    0.80    0.76
  -8  -2   8   -0.05    0.75
   7   2  -8   12.82    2.25
   7   2  -8   17.72    3.07
  -7  -2   8   10.73    2.00
  -7  -2   8   15.04    1.84
  -7  -2   8   14.18    2.18
  -7  -2   8   15.47    2.12
   6   2  -8   16.40    2.30
   6   2  -8   15.70    2.70
   6   2  -8   18.04    2.13
  -6  -2   8   14.12    2.06
  -6  -2   8   20.67    1.95
  -6  -2   8   15.56    2.22
  -6  -2   8   18.46    1.70
   5   2  -8   26.68    2.10
   5   2  -8   22.77    2.02
   5   2  -8   28.33    2.43
   5   2  -8   24.12    3.15
  -5  -2   8   26.07    2.17
  -5  -2   8   27.75    2.29
  -5  -2   8   21.19    2.12
  -5  -2   8   24.85    2.02
   4   2  -8   62.44    3.18
   4   2  -8   61.12    3.35
   4   2  -8   61.71    3.81
  -4  -2   8   58.84    3.09
  -4  -2   8   64.64    3.10
  -4  -2   8   65.16    3.44
   3   2  -8   75.08    3.51
   3   2  -8   75.53    3.64
  -3  -2   8   73.35    3.57
  -3  -2   8   72.21    3.50
  -3  -2   8   78.17    3.55
  -3  -2   8   73.41    3.33
  -3  -2   8   71.87    3.18
   2   2  -8   56.65    3.03
   2   2  -8   56.87    3.11
   2   2  -8   66.51    4.75
  -2  -2   8   53.20    2.92
  -2  -2   8   54.71    3.03
  -2  -2   8   50.36    2.26
  -2  -2   8   53.16    2.49
  -2  -2   8   56.35    2.93
   1   2  -8    3.16    1.18
   1   2  -8    0.92    0.52
   1   2  -8    0.62    0.59
   1   2  -8    3.29    1.01
  -1  -2   8    2.81    0.77
  -1  -2   8    1.84    0.80
  -1  -2   8    1.03    0.47
  -1  -2   8    2.02    0.84
  -1  -2   8    2.42    0.99
   0   2  -8    5.04    1.28
   0   2  -8    3.54    0.94
   0   2  -8    3.98    1.09
   0   2  -8    4.14    1.16
   0   2  -8    3.81    0.64
   0  -2   8    4.64    0.99
   0  -2   8    3.34    0.94
   0  -2   8    3.25    0.93
   0  -2   8    4.37    1.11
   0  -2   8    4.51    0.76
   0  -2   8    3.57    0.90
   0  -2   8    1.99    0.95
  -1   2  -8   27.10    2.12
  -1   2  -8   26.13    2.33
  -1   2  -8   29.50    2.36
  -1   2  -8   28.83    1.21
  -1   2  -8   25.29    2.34
   1  -2   8   26.41    2.19
   1  -2   8   30.44    1.86
   1  -2   8   27.40    2.25
   1  -2   8   30.98    2.28
  -2   2  -8   48.92    3.10
  -2   2  -8   43.34    2.79
  -2   2  -8   44.93    2.42
  -2   2  -8   45.08    3.14
  -2   2  -8   44.43    2.71
   2  -2   8   45.90    3.10
   2  -2   8   47.62    2.35
   2  -2   8   46.61    2.79
  -3   2  -8   26.95    1.98
  -3   2  -8   30.09    1.24
  -3   2  -8   34.93    3.01
  -3   2  -8   27.30    2.23
  -3   2  -8   29.95    2.64
  -3   2  -8   31.79    2.42
   3  -2   8   32.34    2.78
   3  -2   8   34.89    2.47
   3  -2   8   32.25    2.89
   3  -2   8   30.24    2.00
  -4   2  -8   78.09    3.29
  -4   2  -8   85.85    3.73
  -4   2  -8   94.75    5.04
  -4   2  -8   94.25    4.63
  -4   2  -8   94.74    4.38
   4  -2   8   89.13    4.98
   4  -2   8   87.91    4.02
   4  -2   8   94.70    5.22
   4  -2   8   90.20    3.36
  -5   2  -8   20.40    1.78
  -5   2  -8   24.57    2.12
  -5   2  -8   24.46    1.50
  -5   2  -8   19.36    2.40
  -5   2  -8   19.80    3.30
   5  -2   8   24.94    2.22
   5  -2   8   26.85    3.62
   5  -2   8   28.01    3.78
  -6   2  -8    4.70    1.47
  -6   2  -8    4.03    1.72
  -6   2  -8    2.06    0.95
  -6   2  -8    2.36    1.50
   6  -2   8    3.95    1.28
   6  -2   8    4.85    1.62
   6  -2   8    3.02    1.74
  -7   2  -8    9.40    1.79
  -7   2  -8    5.39    1.83
  -7   2  -8    7.00    2.24
   7  -2   8    7.59    2.73
   7  -2   8    3.76    1.80
   9   1  -8    5.17    1.73
   9   1  -8    1.93    1.62
  -9  -1   8    1.43    0.81
  -9  -1   8    4.81    1.47
  -9  -1   8    0.68    1.10
   8   1  -8   -0.15    0.87
   8   1  -8   -0.81    1.12
   8   1  -8   -1.64    0.95
  -8  -1   8   -1.37    1.17
  -8  -1   8    1.09    0.96
  -8  -1   8   -0.32    0.69
  -8  -1   8    0.54    0.84
   7   1  -8    1.82    1.18
   7   1  -8    2.19    1.06
   7   1  -8    3.76    1.65
  -7  -1   8    0.86    1.24
  -7  -1   8    3.15    0.93
  -7  -1   8    2.15    0.94
  -7  -1   8    2.88    1.18
   6   1  -8    9.78    1.94
   6   1  -8    9.28    2.16
   6   1  -8   11.93    2.11
  -6  -1   8    7.47    1.52
  -6  -1   8   10.48    1.95
  -6  -1   8    9.91    1.53
  -6  -1   8   10.63    1.89
   5   1  -8   12.09    2.09
   5   1  -8   15.27    1.93
  -5  -1   8   12.57    1.90
  -5  -1   8   17.73    2.25
  -5  -1   8    9.83    1.81
  -5  -1   8   12.22    1.64
   4   1  -8  146.82    5.07
   4   1  -8  152.94    5.50
   4   1  -8  143.21    5.86
  -4  -1   8  140.73    5.00
  -4  -1   8  147.48    5.32
  -4  -1   8  137.86    4.64
  -4  -1   8  146.01    4.95
   3   1  -8   28.99    2.19
   3   1  -8   34.39    2.49
  -3  -1   8   32.51    2.60
  -3  -1   8   32.50    2.41
  -3  -1   8   30.36    1.96
   2   1  -8   -0.29    0.60
   2   1  -8    0.99    0.69
   2   1  -8    0.48    0.75
  -2  -1   8    0.57    0.44
  -2  -1   8   -0.19    0.51
  -2  -1   8    0.14    0.65
  -2  -1   8   -0.12    0.35
  -2  -1   8   -0.28    0.53
   1   1  -8    0.25    0.65
   1   1  -8    1.35    0.59
   1   1  -8    0.32    0.53
  -1  -1   8    0.74    0.65
  -1  -1   8    0.17    0.39
  -1  -1   8    1.14    0.41
  -1  -1   8    0.64    0.58
  -1  -1   8    1.09    0.83
  -1  -1   8   -0.07    0.57
  -1  -1   8    0.68    0.53
   0   1  -8    0.88    0.67
   0   1  -8    0.19    0.75
   0   1  -8    0.05    0.59
   0  -1   8    0.13    0.39
   0  -1   8    0.98    0.53
   0  -1   8    1.20    0.58
   0  -1   8    0.97    0.31
   0  -1   8    0.44    0.49
  -1   1  -8   81.13    3.87
  -1   1  -8   77.54    3.51
  -1   1  -8   76.22    3.98
  -1   1  -8   81.94    3.81
   1  -1   8   82.50    2.79
   1  -1   8   73.38    3.41
   1  -1   8   76.87    4.36
   1  -1   8   81.94    3.36
  -2   1  -8  142.52    5.04
  -2   1  -8  148.75    5.47
  -2   1  -8  156.16    6.04
   2  -1   8  145.21    5.80
   2  -1   8  162.84    5.30
   2  -1   8  152.13    5.04
   2  -1   8  148.22    4.05
  -3   1  -8    1.62    0.91
  -3   1  -8    1.52    1.15
  -3   1  -8    1.59    0.74
  -3   1  -8    0.36    0.64
   3  -1   8   -0.12    0.61
   3  -1   8    0.15    0.68
   3  -1   8    1.06    0.46
   3  -1   8    0.61    0.70
  -4   1  -8   14.15    1.97
  -4   1  -8   11.20    1.79
  -4   1  -8   13.18    1.92
  -4   1  -8   12.29    2.03
  -4   1  -8   13.06    0.50
  -4   1  -8   12.15    2.18
   4  -1   8    8.94    2.11
   4  -1   8   13.18    2.51
   4  -1   8   12.92    1.60
  -5   1  -8   -0.36    0.82
  -5   1  -8    0.17    0.93
  -5   1  -8   -1.11    0.72
  -5   1  -8    0.62    0.77
  -5   1  -8    0.40    0.84
   5  -1   8    0.15    0.72
   5  -1   8   -0.46    0.90
   5  -1   8   -0.90    1.18
  -6   1  -8    1.58    0.85
  -6   1  -8    1.85    1.18
  -6   1  -8    3.15    1.41
   6  -1   8    1.51    1.30
   6  -1   8    2.43    1.75
   6  -1   8    1.37    1.27
   9   0  -8    6.84    2.13
  -9   0   8    5.98    1.73
  -9   0   8    7.62    1.66
   8   0  -8   -0.51    1.10
   8   0  -8    0.91    1.18
  -8   0   8    1.82    1.42
  -8   0   8    2.30    1.09
  -8   0   8    0.15    0.91
  -8   0   8    0.09    0.64
   7   0  -8    3.21    1.14
   7   0  -8    3.61    1.16
   7   0  -8    7.18    1.98
  -7   0   8    4.97    1.43
  -7   0   8    3.45    1.00
  -7   0   8    3.24    1.21
   6   0  -8    0.67    1.06
   6   0  -8   -0.28    0.92
   6   0  -8    0.14    0.71
   6   0  -8    2.05    0.83
  -6   0   8    1.04    0.74
  -6   0   8    1.85    0.65
  -6   0   8    1.87    0.98
   5   0  -8    8.44    1.64
   5   0  -8    7.22    1.84
   5   0  -8    7.71    1.74
  -5   0   8    7.70    1.58
  -5   0   8    6.81    1.42
  -5   0   8    7.35    1.32
   4   0  -8    1.46    0.38
   4   0  -8    2.05    0.99
   4   0  -8    2.08    1.10
   4   0  -8    2.13    1.08
  -4   0   8    1.33    0.73
  -4   0   8    1.08    0.89
  -4   0   8    2.02    0.76
  -4   0   8    2.53    1.12
   3   0  -8   10.05    1.80
   3   0  -8    8.14    0.85
   3   0  -8    9.73    1.69
  -3   0   8   10.27    1.41
  -3   0   8   11.28    1.66
  -3   0   8    9.37    1.31
  -3   0   8    8.67    1.63
  -3   0   8    8.08    1.38
   2   0  -8    5.52    1.01
   2   0  -8    4.16    1.32
   2   0  -8    3.89    1.13
   2   0  -8    4.83    1.15
  -2   0   8    5.21    0.94
  -2   0   8    3.57    1.14
  -2   0   8    5.84    1.19
  -2   0   8    4.73    0.85
   1   0  -8   42.83    2.53
   1   0  -8   41.55    2.57
   1   0  -8   32.62    2.97
   1   0  -8   32.33    2.07
  -1   0   8   38.01    2.33
  -1   0   8   38.93    1.82
  -1   0   8   36.41    1.47
  -1   0   8   32.56    2.64
  -1   0   8   35.79    2.35
   0   0  -8   39.30    2.41
   0   0  -8   39.11    2.85
   0   0  -8   38.48    2.75
   0   0  -8   36.32    2.87
   0   0  -8   34.71    2.35
   0   0   8   37.87    2.36
   0   0   8   33.09    1.57
   0   0   8   37.32    2.50
  -1   0  -8   72.33    3.60
  -1   0  -8   72.48    4.00
  -1   0  -8   80.91    3.51
   1   0   8   76.50    2.34
   1   0   8   74.71    3.88
   1   0   8   67.90    3.17
  -2   0  -8   26.05    2.49
  -2   0  -8   28.04    2.12
  -2   0  -8   27.20    2.24
   2   0   8   24.76    1.34
   2   0   8   23.89    1.92
   2   0   8   25.54    2.56
   2   0   8   27.91    1.70
  -3   0  -8   37.36    3.27
  -3   0  -8   36.24    1.94
  -3   0  -8   35.46    2.47
  -3   0  -8   36.42    2.68
   3   0   8   34.09    3.03
   3   0   8   37.31    1.84
   3   0   8   35.03    2.36
   3   0   8   40.60    1.90
  -4   0  -8   20.61    2.13
  -4   0  -8   20.30    3.03
  -4   0  -8   24.56    1.75
  -4   0  -8   20.92    1.94
   4   0   8   19.94    1.79
   4   0   8   24.74    3.33
  -5   0  -8    0.79    0.89
  -5   0  -8    0.17    1.00
  -5   0  -8    0.08    0.75
   5   0   8    1.73    1.07
   5   0   8   -0.67    1.29
  -6   0  -8    5.07    1.31
  -6   0  -8    5.75    1.57
  -6   0  -8    2.62    1.51
   6   0   8    1.46    1.46
   6   0   8    1.42    1.58
   9  -1  -8    3.69    1.71
   9  -1  -8    5.16    2.10
   9  -1  -8    4.52    2.04
  -9   1   8    7.36    1.93
  -9   1   8    5.34    1.73
   8  -1  -8    1.48    1.13
   8  -1  -8    4.12    1.66
   8  -1  -8    5.26    1.86
  -8   1   8    3.90    1.21
  -8   1   8    5.51    1.48
   7  -1  -8   -0.13    1.04
   7  -1  -8    0.97    0.82
   7  -1  -8    3.05    1.25
  -7   1   8    1.05    0.96
  -7   1   8    2.18    1.11
  -7   1   8    0.19    0.65
   6  -1  -8    1.61    1.00
   6  -1  -8    1.82    1.18
   6  -1  -8    0.76    1.22
  -6   1   8    2.42    1.09
  -6   1   8    0.62    1.14
  -6   1   8    0.65    0.65
  -6   1   8    1.20    0.96
   5  -1  -8   49.98    3.34
   5  -1  -8   52.68    3.67
   5  -1  -8   53.63    3.21
   5  -1  -8   46.61    1.88
  -5   1   8   53.37    3.19
  -5   1   8   52.69    2.92
  -5   1   8   50.15    3.27
  -5   1   8   50.05    2.75
   4  -1  -8   89.46    4.10
   4  -1  -8   87.30    2.87
   4  -1  -8   82.66    4.22
   4  -1  -8   86.38    4.47
  -4   1   8   92.00    3.72
  -4   1   8   80.64    3.96
  -4   1   8   89.39    3.50
   3  -1  -8   36.54    2.01
   3  -1  -8   36.46    2.76
   3  -1  -8   35.83    2.59
   3  -1  -8   36.19    2.43
  -3   1   8   42.23    2.66
  -3   1   8   39.80    2.07
  -3   1   8   37.71    2.33
  -3   1   8   36.87    2.94
   2  -1  -8   16.76    1.52
   2  -1  -8   16.68    2.26
  -2   1   8   16.04    1.19
  -2   1   8   16.69    2.06
  -2   1   8   15.61    1.60
  -2   1   8   13.96    1.42
   1  -1  -8   11.57    1.88
   1  -1  -8   10.87    1.64
   1  -1  -8   14.07    1.81
  -1   1   8   12.70    1.71
  -1   1   8    9.46    1.54
  -1   1   8   10.59    1.60
  -1   1   8   11.26    0.90
   0  -1  -8   21.77    1.81
   0  -1  -8   22.64    2.01
   0  -1  -8   20.99    2.15
   0   1   8   24.50    1.90
   0   1   8   21.72    1.75
   0   1   8   22.39    2.11
   0   1   8   22.12    0.97
  -1  -1  -8   38.00    3.01
  -1  -1  -8   37.47    2.40
  -1  -1  -8   36.72    2.56
   1   1   8   37.55    2.29
   1   1   8   34.99    2.60
   1   1   8   39.71    2.30
   1   1   8   33.96    2.74
   1   1   8   36.30    1.14
  -2  -1  -8   46.96    2.91
  -2  -1  -8   45.47    2.65
  -2  -1  -8   46.17    3.44
   2   1   8   44.76    2.49
   2   1   8   46.69    2.41
   2   1   8   47.94    3.52
  -3  -1  -8    3.37    1.32
  -3  -1  -8    3.75    1.14
  -3  -1  -8    3.26    1.23
   3   1   8    4.58    1.58
   3   1   8    3.98    0.68
   3   1   8    4.69    0.93
  -4  -1  -8    1.44    0.80
  -4  -1  -8    1.67    0.91
  -4  -1  -8    2.17    0.63
   4   1   8    1.54    0.71
   4   1   8    2.26    0.74
  -5  -1  -8    4.94    1.01
  -5  -1  -8    3.57    1.03
  -5  -1  -8    5.01    1.69
  -5  -1  -8    2.78    1.14
   5   1   8    3.47    1.34
   5   1   8    4.49    1.24
  -6  -1  -8   13.71    2.14
  -6  -1  -8   17.15    1.76
  -6  -1  -8   11.94    2.84
   6   1   8   15.53    3.14
   9  -2  -8   -0.76    1.39
   9  -2  -8    0.02    1.63
   9  -2  -8   -0.13    0.87
   9  -2  -8    3.76    1.88
  -9   2   8    2.34    1.50
  -9   2   8   -0.37    0.94
   8  -2  -8    0.03    0.95
   8  -2  -8   -0.75    0.93
   8  -2  -8   -0.76    0.56
   8  -2  -8    0.92    1.22
   8  -2  -8    0.15    1.13
  -8   2   8   -0.58    0.90
   7  -2  -8    0.50    0.69
   7  -2  -8   -0.32    0.95
   7  -2  -8   -0.64    0.97
  -7   2   8   -0.85    0.69
  -7   2   8    1.80    1.07
   6  -2  -8    4.85    1.04
   6  -2  -8    6.88    1.67
   6  -2  -8    7.18    1.82
  -6   2   8    5.78    1.38
  -6   2   8    7.90    1.72
   5  -2  -8   -0.86    0.51
   5  -2  -8   -0.73    0.77
   5  -2  -8    0.13    0.72
   5  -2  -8    1.06    0.87
  -5   2   8    0.34    0.67
  -5   2   8   -0.43    0.58
   4  -2  -8    0.47    0.69
   4  -2  -8    0.68    0.91
   4  -2  -8    0.12    0.49
  -4   2   8   -0.06    0.61
  -4   2   8    0.80    0.84
  -4   2   8    0.33    0.52
   3  -2  -8    0.35    0.94
   3  -2  -8   -0.18    0.66
   3  -2  -8    1.39    0.79
   3  -2  -8    0.42    0.89
  -3   2   8   -0.33    0.72
  -3   2   8   -0.17    0.39
  -3   2   8    0.56    0.53
   2  -2  -8    3.95    0.99
   2  -2  -8    3.99    1.40
   2  -2  -8    3.45    1.07
   2  -2  -8    3.22    1.08
  -2   2   8    4.57    1.12
  -2   2   8    5.54    1.27
  -2   2   8    3.45    0.65
   1  -2  -8   22.71    2.04
   1  -2  -8   21.36    1.91
   1  -2  -8   22.78    2.26
  -1   2   8   21.58    0.96
  -1   2   8   21.33    0.84
  -1   2   8   19.24    1.75
  -1   2   8   24.63    3.11
   0  -2  -8    1.61    0.80
   0  -2  -8   -0.13    0.63
   0  -2  -8    0.09    0.65
   0   2   8    1.06    0.69
   0   2   8    2.00    0.99
  -1  -2  -8   43.12    3.24
  -1  -2  -8   40.75    2.50
  -1  -2  -8   42.88    2.79
   1   2   8   40.94    2.52
   1   2   8   41.87    3.27
   1   2   8   39.27    2.36
  -2  -2  -8    6.60    1.35
  -2  -2  -8    6.44    1.43
  -2  -2  -8    6.84    1.90
   2   2   8    5.34    1.51
  -3  -2  -8   10.13    2.06
  -3  -2  -8   12.38    1.83
   3   2   8   10.05    1.40
   3   2   8    9.17    2.24
   3   2   8    9.29    1.46
  -4  -2  -8    6.49    1.47
  -4  -2  -8    7.20    2.05
  -4  -2  -8    7.75    1.46
   4   2   8    5.43    1.15
   4   2   8    5.98    1.05
   4   2   8    7.31    1.94
  -5  -2  -8    6.46    2.07
  -5  -2  -8    1.90    0.73
  -5  -2  -8    3.15    1.15
  -5  -2  -8    4.30    1.31
   5   2   8    1.67    1.12
   5   2   8    2.85    0.86
   9  -3  -8    3.89    1.91
   9  -3  -8    2.42    1.36
   9  -3  -8    8.55    2.08
   9  -3  -8    6.29    2.42
  -9   3   8    5.61    1.83
  -9   3   8    4.94    1.89
   8  -3  -8    0.28    1.14
   8  -3  -8    3.24    1.49
   8  -3  -8   -0.22    1.05
  -8   3   8   -1.02    0.72
  -8   3   8    1.08    1.11
   7  -3  -8    8.80    1.92
   7  -3  -8    8.28    2.11
   7  -3  -8    8.91    1.61
  -7   3   8    5.89    1.42
  -7   3   8    7.21    1.66
   6  -3  -8    4.51    1.48
   6  -3  -8    2.56    0.93
   6  -3  -8    1.79    1.39
   6  -3  -8    2.89    1.30
  -6   3   8    3.61    1.22
  -6   3   8    2.33    1.25
   5  -3  -8   91.09    4.79
   5  -3  -8   85.06    4.29
   5  -3  -8   82.93    4.41
   5  -3  -8   85.14    3.74
  -5   3   8   90.79    4.47
  -5   3   8   85.65    3.62
   4  -3  -8   54.22    3.41
   4  -3  -8   55.03    3.01
   4  -3  -8   65.05    3.89
  -4   3   8   64.29    2.74
   3  -3  -8    4.44    1.41
   3  -3  -8    2.95    1.18
   3  -3  -8    3.11    1.12
  -3   3   8    4.61    1.26
  -3   3   8    4.71    0.83
   2  -3  -8   10.43    1.87
   2  -3  -8   10.39    1.78
   2  -3  -8   10.40    1.73
  -2   3   8   12.29    1.84
  -2   3   8   10.35    1.86
  -2   3   8   11.42    0.81
   1  -3  -8    0.25    0.68
   1  -3  -8    0.56    0.90
   1  -3  -8    0.97    0.83
  -1   3   8    0.51    0.44
  -1   3   8    1.80    0.85
  -1   3   8    0.25    0.73
   0  -3  -8   18.88    2.67
   0  -3  -8   15.05    1.93
   0  -3  -8   15.24    2.03
   0   3   8   14.95    0.68
   0   3   8   16.46    2.17
   0   3   8   18.77    1.75
   0   3   8   13.52    2.32
  -1  -3  -8   14.22    1.97
  -1  -3  -8   11.84    2.22
   1   3   8   11.36    1.92
   1   3   8   11.73    2.23
   1   3   8   10.11    2.07
  -2  -3  -8    0.43    0.74
  -2  -3  -8    1.93    1.23
   2   3   8    0.24    0.65
   2   3   8    2.14    1.27
  -3  -3  -8    8.15    1.43
  -3  -3  -8    7.00    2.17
   3   3   8    8.30    1.08
   3   3   8    7.68    1.49
   3   3   8    5.79    1.95
  -4  -3  -8    1.15    0.82
  -4  -3  -8    1.64    1.46
  -4  -3  -8    1.37    0.87
   4   3   8   -0.39    0.82
   4   3   8   -0.25    0.98
  -5  -3  -8    2.06    0.83
  -5  -3  -8    0.67    1.26
   5   3   8    2.18    1.44
   8  -4  -8    5.34    1.54
   8  -4  -8    2.66    1.48
   8  -4  -8    0.76    1.49
  -8   4   8    0.42    0.95
  -8   4   8    1.82    1.28
   7  -4  -8    0.68    1.00
   7  -4  -8   -0.66    0.94
  -7   4   8    1.64    0.82
  -7   4   8    0.07    1.07
   6  -4  -8    4.89    1.56
   6  -4  -8    1.88    1.10
   6  -4  -8    2.22    1.16
  -6   4   8    2.80    0.93
  -6   4   8    4.26    1.40
   5  -4  -8    8.28    1.80
   5  -4  -8    8.67    1.75
   5  -4  -8    8.38    1.87
  -5   4   8    8.78    1.37
  -5   4   8    8.63    1.87
   4  -4  -8    1.39    0.91
   4  -4  -8    2.01    0.98
  -4   4   8    1.76    0.91
  -4   4   8    2.46    1.26
   3  -4  -8    1.34    1.01
   3  -4  -8    2.28    0.96
   3  -4  -8    1.19    0.84
  -3   4   8    1.09    0.73
  -3   4   8    1.71    0.61
  -3   4   8    1.21    0.82
   2  -4  -8    2.38    1.17
   2  -4  -8    3.62    1.23
   2  -4  -8    0.77    0.94
  -2   4   8    3.77    1.18
  -2   4   8    3.39    1.15
  -2   4   8    3.13    0.41
   1  -4  -8   37.88    3.10
   1  -4  -8   37.95    2.64
   1  -4  -8   37.41    2.71
  -1   4   8   36.04    2.77
  -1   4   8   35.94    1.85
  -1   4   8   32.60    2.34
   0  -4  -8    3.05    1.15
   0  -4  -8    2.79    1.05
   0  -4  -8    5.22    1.53
   0   4   8    4.21    1.02
   0   4   8    2.12    0.98
   0   4   8    4.37    1.66
  -1  -4  -8    5.68    1.27
  -1  -4  -8    4.16    1.28
  -1  -4  -8    3.22    1.58
   1   4   8    3.46    1.34
   1   4   8    3.97    0.90
   1   4   8    3.31    1.46
  -2  -4  -8   -0.02    1.24
  -2  -4  -8    4.09    1.08
   2   4   8    3.08    0.74
   2   4   8    2.32    1.72
   2   4   8    2.29    1.04
  -3  -4  -8    8.05    1.51
  -3  -4  -8    9.24    2.11
  -3  -4  -8    2.83    1.07
   3   4   8    4.77    1.31
   3   4   8    4.92    1.68
  -4  -4  -8    6.62    1.43
  -4  -4  -8    8.90    2.45
   4   4   8    5.02    1.38
   4   4   8   13.84    2.80
   8  -5  -8    7.37    2.12
   8  -5  -8    6.09    1.89
  -8   5   8    7.45    2.35
  -8   5   8    9.68    2.02
  -8   5   8   11.81    2.30
   7  -5  -8   19.69    2.73
   7  -5  -8   18.70    2.88
  -7   5   8   16.66    2.27
  -7   5   8   17.81    2.87
  -7   5   8   27.31    2.84
   6  -5  -8    0.12    0.94
   6  -5  -8    2.07    1.04
   6  -5  -8    0.20    0.94
  -6   5   8    4.06    1.54
  -6   5   8    0.26    0.71
  -6   5   8    1.49    0.79
   5  -5  -8   31.54    2.66
   5  -5  -8   25.95    2.63
   5  -5  -8   33.35    3.09
  -5   5   8   28.49    2.10
  -5   5   8   29.94    2.75
  -5   5   8   29.27    2.80
   4  -5  -8   20.99    2.77
   4  -5  -8   16.08    2.63
  -4   5   8   21.55    2.89
  -4   5   8   22.91    2.32
  -4   5   8   19.59    1.54
   3  -5  -8    0.10    1.05
   3  -5  -8    1.38    1.13
   3  -5  -8    0.75    0.85
  -3   5   8    0.85    0.93
  -3   5   8   -0.26    0.43
  -3   5   8    0.96    0.80
   2  -5  -8    8.47    1.68
   2  -5  -8    9.24    1.76
   2  -5  -8    6.94    1.85
  -2   5   8    9.07    1.69
  -2   5   8    7.02    1.28
  -2   5   8    6.93    1.60
   1  -5  -8    3.87    1.06
   1  -5  -8    2.61    1.05
   1  -5  -8    0.63    1.17
  -1   5   8    1.68    0.91
  -1   5   8    1.70    0.72
  -1   5   8    1.48    1.00
   0  -5  -8    1.33    0.91
   0  -5  -8    0.85    1.07
   0  -5  -8    2.18    1.13
   0   5   8    0.98    0.58
   0   5   8    0.79    1.00
  -1  -5  -8   22.22    3.05
  -1  -5  -8   15.49    1.96
  -1  -5  -8   17.07    2.21
   1   5   8   20.22    2.66
  -2  -5  -8    1.09    0.88
  -2  -5  -8    3.32    0.93
  -2  -5  -8    2.62    1.35
   2   5   8    2.49    1.09
   2   5   8    2.76    1.69
  -3  -5  -8    7.42    1.42
  -3  -5  -8    7.57    1.87
   3   5   8    8.50    2.25
   3   5   8    5.65    1.44
   7  -6  -8    2.11    1.14
   7  -6  -8    0.40    0.89
  -7   6   8    0.74    1.12
  -7   6   8    0.46    1.36
  -7   6   8    1.59    1.31
   6  -6  -8    0.87    0.99
   6  -6  -8    0.48    1.25
  -6   6   8    2.59    1.39
  -6   6   8    1.56    1.14
  -6   6   8   -0.24    0.90
   5  -6  -8    7.89    1.81
  -5   6   8    6.38    1.45
  -5   6   8   10.10    2.03
  -5   6   8    6.18    1.87
   4  -6  -8    8.09    1.71
  -4   6   8   10.89    2.20
  -4   6   8   11.19    1.42
  -4   6   8   12.51    2.16
   3  -6  -8    7.12    1.80
   3  -6  -8    9.44    2.01
  -3   6   8    7.85    1.25
  -3   6   8    6.54    1.41
  -3   6   8    6.01    1.47
  -3   6   8    5.64    1.54
   2  -6  -8   24.47    3.23
   2  -6  -8   20.28    2.60
   2  -6  -8   15.14    2.33
  -2   6   8   17.05    2.63
  -2   6   8   19.76    2.49
   1  -6  -8   41.66    2.97
   1  -6  -8   41.45    3.43
   1  -6  -8   33.48    2.77
  -1   6   8   36.21    2.31
   0  -6  -8    0.99    0.85
   0  -6  -8    2.31    1.25
   0  -6  -8    3.74    1.42
   0   6   8    2.73    0.87
   0   6   8    2.29    1.10
   0   6   8    5.08    1.58
  -1  -6  -8    4.45    1.76
  -1  -6  -8    4.76    1.24
  -1  -6  -8    6.15    1.52
   1   6   8    2.97    0.80
   1   6   8    4.02    1.45
  -2  -6  -8   -1.11    0.63
  -2  -6  -8    0.18    1.36
   2   6   8    0.84    0.95
   6  -7  -8    0.45    1.35
   6  -7  -8   -1.78    1.01
   6  -7  -8   -0.46    0.94
  -6   7   8    2.07    1.49
  -6   7   8    0.43    1.31
  -6   7   8   -0.99    0.91
   5  -7  -8    0.36    1.15
   5  -7  -8    0.72    0.96
   5  -7  -8   -0.25    1.01
  -5   7   8   -1.44    0.89
  -5   7   8    2.58    1.30
  -5   7   8    0.72    0.92
   4  -7  -8    0.44    1.06
   4  -7  -8    1.97    1.24
   4  -7  -8    1.45    1.24
  -4   7   8    1.29    0.99
  -4   7   8   -0.87    0.81
  -4   7   8    0.12    1.23
  -4   7   8    0.73    0.73
   3  -7  -8    1.16    1.18
   3  -7  -8   -0.09    0.80
   3  -7  -8   -0.50    2.20
  -3   7   8    1.26    1.10
  -3   7   8    0.85    1.08
  -3   7   8    0.57    0.87
   2  -7  -8   -1.18    0.93
   2  -7  -8    1.98    2.04
   2  -7  -8    1.11    0.93
  -2   7   8    2.14    1.14
  -2   7   8   -0.80    0.83
   1  -7  -8    5.69    1.47
  -1   7   8    2.71    1.25
  -1   7   8    4.19    1.22
   0  -7  -8    4.36    1.33
   0  -7  -8    5.49    1.71
   0   7   8    5.96    1.86
  -1  -7  -8    4.21    1.85
  -1  -7  -8    3.00    1.02
   1   7   8   -0.71    1.06
   1   7   8    1.38    1.10
   5  -8  -8    2.36    1.44
   5  -8  -8   -1.10    1.12
   5  -8  -8    1.77    1.38
  -5   8   8    2.13    1.11
  -5   8   8    1.35    1.14
  -5   8   8    2.48    1.19
  -5   8   8    2.13    1.74
   4  -8  -8    8.10    1.58
   4  -8  -8    5.11    1.75
   4  -8  -8    8.38    1.97
  -4   8   8    8.54    2.04
  -4   8   8    5.95    1.70
  -4   8   8    5.46    1.15
  -4   8   8    6.05    2.00
   3  -8  -8   -1.84    0.81
   3  -8  -8    3.80    1.31
  -3   8   8    1.21    1.33
  -3   8   8    1.01    1.70
  -3   8   8    0.67    1.23
   2  -8  -8   10.11    1.91
   2  -8  -8   11.87    2.38
  -2   8   8   11.82    2.48
  -2   8   8   13.78    2.04
   1  -8  -8    7.39    1.62
   1  -8  -8    6.75    1.86
  -1   8   8    5.15    2.03
  -1   8   8    6.20    1.49
   2  10  -9    0.73    1.37
   2  10  -9    0.57    1.03
  -2 -10   9    0.07    0.93
  -2 -10   9    2.33    1.31
   1  10  -9    0.09    1.02
   1  10  -9   -0.86    1.04
  -1 -10   9    0.73    1.03
  -1 -10   9    1.23    1.20
   0  10  -9    1.58    1.42
   0  10  -9   -0.70    0.93
   0  10  -9   -2.21    1.07
   0 -10   9   -0.56    1.03
   0 -10   9    2.27    1.14
  -1  10  -9    0.05    1.00
  -1  10  -9   -2.85    1.30
  -1  10  -9    1.22    0.98
   1 -10   9   -0.39    1.06
   1 -10   9    0.60    1.02
  -2  10  -9    3.05    1.37
  -2  10  -9    0.62    1.99
  -2  10  -9    0.80    0.95
   2 -10   9    4.00    1.41
   2 -10   9    2.10    1.07
  -3  10  -9    2.98    2.13
  -3  10  -9    9.02    2.06
   3 -10   9    7.12    1.97
   3 -10   9    5.69    1.40
   4   9  -9    8.73    1.95
   4   9  -9    3.45    1.54
  -4  -9   9    4.29    1.29
  -4  -9   9    5.13    1.55
   3   9  -9    0.79    0.73
   3   9  -9    0.46    1.21
  -3  -9   9    0.55    0.73
  -3  -9   9    2.00    1.11
   2   9  -9   11.36    2.29
  -2  -9   9   10.10    1.86
  -2  -9   9    7.68    2.00
   1   9  -9    5.20    1.76
   1   9  -9    3.63    1.46
   1   9  -9    5.35    2.27
  -1  -9   9    1.72    1.15
  -1  -9   9    1.51    1.05
  -1  -9   9    5.25    1.25
   0   9  -9    1.73    1.23
   0   9  -9    2.13    1.37
   0   9  -9    1.23    1.35
   0  -9   9    3.11    1.37
   0  -9   9   -1.01    1.40
   0  -9   9    1.67    1.38
  -1   9  -9    1.08    1.01
  -1   9  -9   -0.11    0.90
  -1   9  -9    0.60    1.25
   1  -9   9    1.78    1.12
   1  -9   9   -0.45    1.05
  -2   9  -9    5.18    0.88
  -2   9  -9    6.61    1.67
  -2   9  -9    6.13    1.97
   2  -9   9    5.51    1.59
   2  -9   9    5.13    1.48
  -3   9  -9    5.96    1.23
  -3   9  -9    7.57    2.23
  -3   9  -9   11.89    2.25
   3  -9   9    7.40    1.85
   3  -9   9   10.18    2.20
  -4   9  -9   -0.63    1.14
  -4   9  -9    1.37    1.26
  -4   9  -9   -1.57    1.41
   4  -9   9    0.13    0.91
   4  -9   9   -0.99    0.91
   4  -9   9    0.49    1.20
   5   8  -9    0.12    1.15
  -5  -8   9    0.83    1.16
  -5  -8   9    0.13    0.82
   4   8  -9   12.97    2.34
   4   8  -9   14.46    2.64
  -4  -8   9   11.61    2.26
  -4  -8   9   13.84    2.08
   3   8  -9    1.67    1.32
   3   8  -9    8.45    1.86
   3   8  -9    4.42    1.90
  -3  -8   9    4.57    1.32
  -3  -8   9    3.85    1.18
  -3  -8   9    4.09    1.28
  -3  -8   9    6.00    1.64
  -3  -8   9    2.24    0.75
   2   8  -9    1.25    1.16
   2   8  -9    1.55    1.06
  -2  -8   9    1.74    1.13
  -2  -8   9    0.91    0.83
  -2  -8   9    1.84    0.99
   1   8  -9   13.18    2.32
   1   8  -9   14.33    2.16
  -1  -8   9   14.12    2.31
  -1  -8   9   14.76    2.36
   0   8  -9    6.01    1.71
   0   8  -9    8.34    1.56
   0   8  -9    5.46    1.70
   0  -8   9    8.77    1.84
   0  -8   9    7.64    1.78
  -1   8  -9   -0.34    0.96
  -1   8  -9    1.16    0.57
  -1   8  -9    0.39    0.82
   1  -8   9   -0.66    0.75
   1  -8   9   -0.08    0.73
  -2   8  -9   27.35    2.57
  -2   8  -9   28.11    2.02
  -2   8  -9   37.92    3.38
   2  -8   9   29.94    2.84
   2  -8   9   25.36    2.52
  -3   8  -9   27.15    2.57
  -3   8  -9   24.70    3.59
   3  -8   9   29.05    2.94
   3  -8   9   24.33    1.90
   3  -8   9   30.70    2.68
  -4   8  -9    0.89    1.46
  -4   8  -9    3.35    1.53
  -4   8  -9    0.67    0.99
  -4   8  -9    0.99    1.10
   4  -8   9    4.91    1.35
   4  -8   9    3.75    1.53
   4  -8   9    1.00    1.18
  -5   8  -9   15.55    3.05
  -5   8  -9   16.45    2.84
  -5   8  -9   11.64    2.36
   5  -8   9   11.70    2.17
   5  -8   9   17.62    3.36
   5  -8   9   16.98    3.11
   5  -8   9   14.05    2.15
   6   7  -9    5.25    1.83
  -6  -7   9    5.37    1.57
   5   7  -9    8.11    2.37
  -5  -7   9   10.08    1.72
  -5  -7   9   10.00    1.82
  -5  -7   9    7.47    1.79
   4   7  -9    2.74    1.31
   4   7  -9    0.40    1.30
   4   7  -9    1.29    1.03
  -4  -7   9    0.17    1.05
  -4  -7   9   -0.27    0.85
  -4  -7   9   -0.56    0.53
  -4  -7   9    0.47    0.70
   3   7  -9   -0.16    0.78
   3   7  -9   -0.16    0.84
  -3  -7   9    0.08    0.74
  -3  -7   9   -0.68    0.88
  -3  -7   9    1.23    1.01
  -3  -7   9    0.97    0.74
   2   7  -9    6.44    1.74
   2   7  -9    7.82    1.45
   2   7  -9    5.94    1.61
  -2  -7   9    7.95    1.54
  -2  -7   9    6.96    1.79
  -2  -7   9    8.52    1.12
  -2  -7   9    9.05    1.86
   1   7  -9    0.92    0.54
   1   7  -9    1.56    0.97
   1   7  -9    2.71    1.21
   1   7  -9    0.69    0.77
  -1  -7   9   -0.09    0.74
  -1  -7   9   -0.25    0.76
  -1  -7   9    0.41    0.85
   0   7  -9   -0.36    0.75
   0   7  -9    1.04    0.94
   0   7  -9    0.73    0.58
   0  -7   9    0.66    0.90
   0  -7   9    0.52    0.93
   0  -7   9    0.46    1.07
  -1   7  -9   -0.23    0.64
  -1   7  -9    0.26    0.77
  -1   7  -9    0.49    0.89
   1  -7   9   -0.43    0.74
   1  -7   9    0.52    1.01
  -2   7  -9    9.04    1.76
  -2   7  -9   10.98    1.61
  -2   7  -9   12.36    2.27
   2  -7   9   13.36    2.07
   2  -7   9    9.71    2.02
  -3   7  -9    0.46    1.12
  -3   7  -9    0.60    0.92
  -3   7  -9    0.35    0.95
   3  -7   9   -2.09    0.86
   3  -7   9   -0.28    0.78
   3  -7   9    1.15    0.87
   3  -7   9    0.58    1.09
   3  -7   9    0.19    0.74
  -4   7  -9   10.07    2.05
  -4   7  -9    6.70    1.97
  -4   7  -9    9.34    2.06
  -4   7  -9   13.51    2.04
   4  -7   9    7.95    1.38
   4  -7   9   10.53    1.82
   4  -7   9   10.71    2.35
   4  -7   9   10.18    2.20
   4  -7   9   10.40    1.77
  -5   7  -9   -0.28    0.86
  -5   7  -9    2.41    1.31
  -5   7  -9   -1.88    1.20
  -5   7  -9    1.44    1.10
   5  -7   9    0.33    1.05
   5  -7   9    1.17    1.09
   5  -7   9   -0.30    1.20
   5  -7   9    0.24    1.44
  -6   7  -9    3.38    1.40
  -6   7  -9    8.66    2.08
  -6   7  -9    3.43    1.82
  -6   7  -9    3.16    1.60
   6  -7   9    7.26    2.25
   6  -7   9    2.34    1.20
   6  -7   9    3.94    1.98
   6  -7   9    6.45    2.08
   7   6  -9   -0.93    1.23
  -7  -6   9    3.73    1.62
  -7  -6   9    0.44    0.82
  -7  -6   9    1.26    1.20
   6   6  -9    1.87    1.69
   6   6  -9    0.11    0.89
  -6  -6   9    1.30    1.33
  -6  -6   9    1.31    0.88
  -6  -6   9    2.26    1.37
   5   6  -9    5.11    0.95
   5   6  -9    9.91    2.19
  -5  -6   9    4.99    1.29
  -5  -6   9    4.26    1.34
  -5  -6   9    4.11    1.34
   4   6  -9   24.70    3.08
   4   6  -9   32.41    3.05
  -4  -6   9   34.81    2.75
  -4  -6   9   25.24    2.18
  -4  -6   9   30.72    2.50
  -4  -6   9   27.61    2.54
   3   6  -9    1.41    0.97
   3   6  -9    1.87    1.02
   3   6  -9    1.66    1.16
  -3  -6   9    2.94    1.13
  -3  -6   9   -0.65    0.87
  -3  -6   9    3.99    1.31
  -3  -6   9    1.16    0.58
   2   6  -9    4.79    0.98
   2   6  -9    6.64    1.68
   2   6  -9    4.65    1.43
  -2  -6   9    4.39    1.40
  -2  -6   9    7.18    1.67
  -2  -6   9    5.80    1.23
  -2  -6   9    5.03    1.19
   1   6  -9    5.60    1.53
   1   6  -9    5.20    1.00
   1   6  -9    3.76    1.24
  -1  -6   9    5.98    1.23
  -1  -6   9    5.09    1.46
  -1  -6   9    5.20    1.42
  -1  -6   9    7.02    1.50
   0   6  -9    0.67    0.92
   0   6  -9    1.17    0.84
   0   6  -9    1.90    1.04
   0  -6   9   -1.09    1.09
   0  -6   9    0.22    0.85
   0  -6   9    2.36    1.21
  -1   6  -9    1.08    1.18
  -1   6  -9    1.48    0.88
  -1   6  -9    3.21    1.03
   1  -6   9    1.17    1.00
   1  -6   9    1.30    1.08
   1  -6   9    2.70    1.14
  -2   6  -9   34.78    2.51
  -2   6  -9   39.02    3.14
   2  -6   9   30.50    2.43
   2  -6   9   31.65    2.20
   2  -6   9   37.91    3.09
   2  -6   9   35.77    2.91
  -3   6  -9    0.82    1.14
  -3   6  -9    0.81    0.93
  -3   6  -9    1.51    1.18
  -3   6  -9    1.09    0.99
   3  -6   9    2.49    0.95
   3  -6   9   -0.16    0.81
   3  -6   9    2.13    1.10
   3  -6   9    0.49    0.82
   3  -6   9    1.85    1.09
  -4   6  -9   18.36    3.02
  -4   6  -9   20.61    2.83
  -4   6  -9   16.27    2.16
  -4   6  -9   13.64    2.50
   4  -6   9   20.37    1.98
   4  -6   9   17.28    2.51
   4  -6   9   17.03    2.70
   4  -6   9   16.90    2.83
   4  -6   9   17.21    1.22
  -5   6  -9    7.29    1.89
  -5   6  -9    4.86    1.60
  -5   6  -9    6.52    1.47
  -5   6  -9   10.15    2.47
   5  -6   9    9.01    2.10
   5  -6   9    4.93    1.75
   5  -6   9    7.45    1.41
   5  -6   9    5.87    1.54
  -6   6  -9    4.12    1.75
  -6   6  -9    2.57    1.12
  -6   6  -9    5.24    1.61
  -6   6  -9    5.56    1.96
   6  -6   9    3.32    1.62
   6  -6   9    3.96    1.80
   6  -6   9    4.52    1.63
   6  -6   9    3.09    1.11
   7   5  -9   10.25    1.88
   7   5  -9    9.39    2.55
  -7  -5   9    4.77    1.44
  -7  -5   9    9.10    1.63
  -7  -5   9    8.56    2.07
   6   5  -9    2.32    1.66
   6   5  -9    1.36    0.97
  -6  -5   9    1.49    0.87
  -6  -5   9   -1.27    0.80
  -6  -5   9   -0.70    0.70
  -6  -5   9    0.15    0.95
   5   5  -9   -0.48    0.66
  -5  -5   9    1.33    0.86
  -5  -5   9   -0.90    0.75
   4   5  -9   64.26    3.23
   4   5  -9   71.85    4.46
  -4  -5   9   65.37    3.61
  -4  -5   9   66.44    3.50
  -4  -5   9   61.49    3.52
   3   5  -9    6.77    1.42
   3   5  -9    9.89    1.85
   3   5  -9    9.81    2.11
   3   5  -9   10.60    1.61
  -3  -5   9    9.97    1.77
  -3  -5   9   10.15    1.80
  -3  -5   9    9.64    1.78
  -3  -5   9    7.26    0.75
  -3  -5   9    9.92    1.53
   2   5  -9    2.69    0.87
   2   5  -9    3.15    1.28
   2   5  -9    2.77    0.91
   2   5  -9    1.58    0.86
  -2  -5   9    1.20    1.03
  -2  -5   9    2.19    0.90
  -2  -5   9    2.73    0.74
  -2  -5   9    2.19    0.92
  -2  -5   9    1.24    0.93
   1   5  -9   -0.58    0.51
   1   5  -9    0.99    0.86
   1   5  -9    0.60    0.75
  -1  -5   9    0.46    0.67
  -1  -5   9   -0.12    0.75
  -1  -5   9    0.49    0.62
  -1  -5   9   -0.05    0.62
   0   5  -9    6.07    0.59
   0   5  -9    4.29    1.16
   0   5  -9    4.92    1.46
   0  -5   9    6.93    1.28
   0  -5   9    6.51    1.20
   0  -5   9    5.25    1.56
   0  -5   9    6.78    1.46
   0  -5   9    6.74    1.48
  -1   5  -9   10.80    1.27
  -1   5  -9   12.48    2.15
  -1   5  -9    8.39    1.84
  -1   5  -9   11.94    1.67
   1  -5   9    9.18    1.64
   1  -5   9    9.69    1.64
   1  -5   9    7.76    1.37
   1  -5   9    6.87    1.55
  -2   5  -9   27.71    2.02
  -2   5  -9   30.50    2.07
  -2   5  -9   33.80    2.98
  -2   5  -9   29.97    2.50
   2  -5   9   30.25    2.69
   2  -5   9   32.22    2.76
   2  -5   9   27.19    1.92
   2  -5   9   29.00    2.29
  -3   5  -9    2.55    1.33
  -3   5  -9    1.21    1.19
  -3   5  -9    3.95    1.25
  -3   5  -9    1.36    0.80
   3  -5   9    1.37    0.91
   3  -5   9    2.75    0.77
   3  -5   9    3.74    1.28
   3  -5   9    1.60    1.23
   3  -5   9    2.92    0.99
  -4   5  -9   11.09    2.04
  -4   5  -9   10.45    2.26
  -4   5  -9   11.28    1.79
  -4   5  -9    7.10    1.82
   4  -5   9    6.75    0.71
   4  -5   9   13.00    2.32
   4  -5   9   10.46    2.05
   4  -5   9   10.67    1.89
   4  -5   9   11.08    1.64
  -5   5  -9    2.93    1.36
  -5   5  -9    3.24    1.14
  -5   5  -9    3.12    1.37
   5  -5   9    2.75    1.35
   5  -5   9    1.48    1.38
   5  -5   9    3.65    1.05
  -6   5  -9    5.43    1.67
  -6   5  -9    9.42    2.43
  -6   5  -9    8.20    2.18
  -6   5  -9    5.53    1.42
   6  -5   9    4.92    1.66
   6  -5   9    6.40    2.04
   6  -5   9    6.63    1.86
   6  -5   9    3.54    0.98
   8   4  -9    1.83    1.62
   8   4  -9    4.86    1.92
  -8  -4   9    3.46    1.29
  -8  -4   9    7.93    1.53
  -8  -4   9    5.81    1.79
   7   4  -9    2.22    1.62
   7   4  -9   -1.01    0.91
  -7  -4   9    2.20    0.92
  -7  -4   9    0.75    0.82
  -7  -4   9    0.99    1.27
   6   4  -9    5.14    1.54
   6   4  -9    3.01    1.57
  -6  -4   9    3.72    1.09
  -6  -4   9    4.33    1.61
  -6  -4   9    4.15    1.26
  -6  -4   9    7.16    1.63
   5   4  -9    6.57    1.86
   5   4  -9    9.75    1.46
   5   4  -9    8.32    1.52
  -5  -4   9   11.71    1.82
  -5  -4   9   10.79    1.87
  -5  -4   9   12.13    1.97
   4   4  -9   19.93    2.09
   4   4  -9   26.06    2.11
   4   4  -9   23.67    1.62
  -4  -4   9   22.72    2.26
  -4  -4   9   21.92    2.08
  -4  -4   9   21.82    2.02
   3   4  -9   14.79    2.36
   3   4  -9   10.25    2.19
   3   4  -9   10.14    1.71
  -3  -4   9   13.45    2.00
  -3  -4   9   11.31    0.64
  -3  -4   9   13.83    1.92
  -3  -4   9   10.82    1.89
  -3  -4   9   12.55    1.95
   2   4  -9    6.55    1.41
   2   4  -9    5.15    1.32
   2   4  -9    6.55    1.50
  -2  -4   9    6.31    0.91
  -2  -4   9    4.45    1.42
  -2  -4   9    5.74    1.36
  -2  -4   9    7.89    1.43
  -2  -4   9    5.33    1.24
   1   4  -9    4.15    1.18
   1   4  -9    3.77    1.06
   1   4  -9    3.04    1.11
   1   4  -9    2.13    0.58
  -1  -4   9    1.78    1.13
  -1  -4   9    2.18    0.70
  -1  -4   9    2.50    0.90
  -1  -4   9    3.70    1.12
  -1  -4   9    4.95    1.32
  -1  -4   9    2.65    1.00
   0   4  -9   -0.40    0.46
   0   4  -9    1.31    1.00
   0   4  -9   -0.12    0.77
   0   4  -9   -0.09    0.58
   0  -4   9    0.14    0.81
   0  -4   9    0.00    0.77
   0  -4   9    0.07    0.65
   0  -4   9    0.61    0.56
  -1   4  -9   32.71    1.94
  -1   4  -9   29.53    1.90
   1  -4   9   34.09    2.56
   1  -4   9   32.17    2.02
   1  -4   9   31.69    2.25
   1  -4   9   33.50    2.72
  -2   4  -9   73.38    4.17
  -2   4  -9   72.15    2.84
  -2   4  -9   73.23    3.97
  -2   4  -9   68.77    3.31
   2  -4   9   66.28    2.71
   2  -4   9   69.90    4.00
   2  -4   9   73.53    3.41
  -3   4  -9   -0.63    0.67
  -3   4  -9    1.66    1.21
  -3   4  -9    0.33    1.14
   3  -4   9    1.04    0.98
   3  -4   9    2.07    0.94
   3  -4   9    0.32    0.80
   3  -4   9    0.31    0.87
   3  -4   9    0.81    0.49
  -4   4  -9   16.45    1.53
  -4   4  -9   15.87    3.15
  -4   4  -9   14.99    2.58
  -4   4  -9   16.96    2.32
   4  -4   9   16.52    2.46
   4  -4   9   17.60    1.69
   4  -4   9   17.16    2.73
   4  -4   9   18.49    3.04
  -5   4  -9   12.63    2.57
  -5   4  -9   13.86    2.63
  -5   4  -9    7.62    1.31
  -5   4  -9   13.46    2.15
   5  -4   9   12.58    2.28
   5  -4   9    8.60    1.39
   5  -4   9   11.40    2.45
   5  -4   9    8.65    2.02
  -6   4  -9   10.96    2.36
  -6   4  -9    8.33    1.81
  -6   4  -9   11.37    2.48
   6  -4   9    5.34    1.93
   6  -4   9    9.21    2.40
   6  -4   9    6.80    2.12
   8   3  -9    0.85    1.38
  -8  -3   9    3.99    1.28
  -8  -3   9    2.90    1.41
  -8  -3   9    3.13    1.05
   7   3  -9   -1.54    0.85
   7   3  -9    1.44    1.43
  -7  -3   9   -0.85    0.58
  -7  -3   9   -2.54    0.85
  -7  -3   9    0.56    0.79
  -7  -3   9    0.14    1.05
   6   3  -9    5.60    1.22
   6   3  -9    4.70    1.97
   6   3  -9    9.82    1.74
  -6  -3   9   11.17    1.72
  -6  -3   9    9.10    1.70
  -6  -3   9    7.52    1.68
  -6  -3   9    7.25    1.82
   5   3  -9   62.37    3.54
   5   3  -9   57.46    3.22
   5   3  -9   56.83    3.03
   5   3  -9   62.28    4.26
  -5  -3   9   50.56    3.31
  -5  -3   9   56.52    3.30
  -5  -3   9   64.74    3.36
  -5  -3   9   58.37    3.53
   4   3  -9  178.75    7.15
   4   3  -9  186.50    5.25
   4   3  -9  176.73    5.86
   4   3  -9  170.69    5.87
  -4  -3   9  183.37    5.86
  -4  -3   9  176.68    6.17
  -4  -3   9  190.63    6.15
   3   3  -9   44.40    3.40
   3   3  -9   46.21    3.47
   3   3  -9   47.77    2.95
  -3  -3   9   43.81    2.83
  -3  -3   9   46.35    2.82
  -3  -3   9   42.08    2.95
   2   3  -9   42.85    2.85
  -2  -3   9   40.30    1.89
  -2  -3   9   38.83    2.95
  -2  -3   9   40.08    2.56
  -2  -3   9   43.74    2.82
  -2  -3   9   43.71    2.45
   1   3  -9   -0.60    0.35
   1   3  -9    0.55    0.78
   1   3  -9    0.69    0.54
  -1  -3   9   -0.40    0.63
  -1  -3   9    0.35    0.49
  -1  -3   9    0.51    0.97
  -1  -3   9    1.16    0.84
  -1  -3   9   -0.27    0.84
  -1  -3   9   -0.14    0.33
   0   3  -9   35.85    1.85
   0   3  -9   36.81    2.82
   0   3  -9   37.61    2.67
   0   3  -9   32.56    2.08
   0  -3   9   36.19    2.40
   0  -3   9   35.51    1.91
   0  -3   9   38.02    2.50
   0  -3   9   34.10    2.59
   0  -3   9   34.26    2.60
  -1   3  -9   -1.20    0.66
  -1   3  -9    0.72    0.75
  -1   3  -9   -0.07    0.39
  -1   3  -9   -0.40    0.75
  -1   3  -9   -0.45    0.47
   1  -3   9    0.64    0.76
   1  -3   9   -0.33    0.50
   1  -3   9    0.10    0.65
  -2   3  -9    0.59    0.86
  -2   3  -9    0.32    0.73
  -2   3  -9    2.15    1.14
  -2   3  -9    1.11    1.19
  -2   3  -9    2.24    0.53
   2  -3   9    1.90    0.95
   2  -3   9    1.28    0.81
   2  -3   9    2.52    1.20
  -3   3  -9    1.61    0.77
  -3   3  -9    1.84    1.16
  -3   3  -9    0.84    0.45
  -3   3  -9    0.24    0.91
  -3   3  -9    1.22    1.07
   3  -3   9    1.03    0.74
   3  -3   9    0.89    0.91
   3  -3   9    0.78    0.43
   3  -3   9    0.70    0.78
  -4   3  -9   21.39    1.35
  -4   3  -9   19.14    2.67
  -4   3  -9   26.85    3.25
  -4   3  -9   24.85    2.19
  -4   3  -9   20.41    2.98
   4  -3   9   21.21    2.78
   4  -3   9   29.29    2.89
   4  -3   9   21.56    3.27
   4  -3   9   22.23    1.79
  -5   3  -9   37.37    2.84
  -5   3  -9   32.32    2.91
  -5   3  -9   35.89    4.93
  -5   3  -9   39.58    3.40
   5  -3   9   44.38    3.95
   5  -3   9   36.07    2.25
   5  -3   9   27.08    3.62
   5  -3   9   33.12    2.87
  -6   3  -9   -0.36    1.14
  -6   3  -9   -0.31    0.67
  -6   3  -9   -2.10    0.90
   6  -3   9    0.94    1.19
   6  -3   9    1.61    1.38
   6  -3   9   -0.16    1.32
   8   2  -9    5.70    2.03
   8   2  -9    9.35    1.99
  -8  -2   9    5.45    1.16
  -8  -2   9    5.64    1.68
  -8  -2   9    9.89    1.83
   7   2  -9    2.08    1.14
   7   2  -9   -0.72    1.02
   7   2  -9    1.46    1.14
  -7  -2   9    0.95    0.78
  -7  -2   9    2.43    1.35
  -7  -2   9    1.40    0.88
  -7  -2   9    1.13    0.97
   6   2  -9    1.88    0.96
   6   2  -9    0.09    0.93
   6   2  -9    0.56    0.79
  -6  -2   9    1.01    0.83
  -6  -2   9    0.54    0.84
  -6  -2   9   -2.35    0.94
  -6  -2   9   -0.60    0.76
   5   2  -9   15.32    2.12
   5   2  -9   23.80    3.36
   5   2  -9   17.49    2.49
   5   2  -9   22.11    2.29
  -5  -2   9   19.16    2.48
  -5  -2   9   20.49    2.06
  -5  -2   9   20.90    1.95
  -5  -2   9   24.99    2.39
   4   2  -9   -0.56    0.69
   4   2  -9    0.95    0.95
  -4  -2   9    0.03    0.64
  -4  -2   9   -0.86    0.71
  -4  -2   9    1.18    0.69
   3   2  -9   18.83    1.99
   3   2  -9   19.17    2.39
  -3  -2   9   19.21    2.33
  -3  -2   9   15.75    1.93
  -3  -2   9   18.76    2.22
   2   2  -9   31.98    2.48
  -2  -2   9   32.52    1.94
  -2  -2   9   29.63    2.17
  -2  -2   9   29.96    1.70
  -2  -2   9   25.59    2.47
  -2  -2   9   31.95    2.48
   1   2  -9    0.18    0.68
   1   2  -9   -1.21    0.64
  -1  -2   9    0.16    0.50
  -1  -2   9    0.33    0.53
  -1  -2   9   -0.20    0.53
  -1  -2   9   -1.38    0.60
  -1  -2   9    0.20    0.77
  -1  -2   9   -0.10    0.45
   0   2  -9   16.92    2.15
   0   2  -9   18.57    1.96
   0   2  -9   19.37    2.47
   0   2  -9   18.16    2.36
   0  -2   9   17.62    1.72
   0  -2   9   19.43    1.94
   0  -2   9   17.08    1.61
   0  -2   9   20.50    1.20
   0  -2   9   18.07    1.56
  -1   2  -9   66.95    3.47
  -1   2  -9   66.39    3.48
  -1   2  -9   77.46    4.12
  -1   2  -9   73.61    3.89
   1  -2   9   68.13    2.89
   1  -2   9   63.82    3.58
   1  -2   9   66.09    3.45
  -2   2  -9  104.51    5.01
  -2   2  -9   92.19    4.72
  -2   2  -9  100.28    4.71
   2  -2   9  101.69    4.35
   2  -2   9   97.14    3.82
   2  -2   9   92.19    3.46
   2  -2   9   93.33    4.71
  -3   2  -9    7.86    1.88
  -3   2  -9    7.69    1.42
  -3   2  -9    8.06    1.88
   3  -2   9    5.95    1.18
   3  -2   9    6.38    0.87
   3  -2   9    7.58    1.55
   3  -2   9   10.97    2.13
  -4   2  -9    2.07    1.09
  -4   2  -9   -0.13    0.65
  -4   2  -9   -0.88    1.06
  -4   2  -9    2.25    1.41
   4  -2   9   -0.28    1.08
   4  -2   9    0.41    0.62
   4  -2   9    1.33    0.89
   4  -2   9    0.52    0.87
  -5   2  -9   -0.40    1.17
  -5   2  -9   -0.23    0.44
  -5   2  -9    2.87    1.29
  -5   2  -9    0.75    0.99
  -5   2  -9    2.31    1.49
   5  -2   9    0.68    0.97
   5  -2   9   -0.30    1.16
   5  -2   9   -0.89    0.95
  -6   2  -9    0.95    1.10
  -6   2  -9   -0.02    1.02
  -6   2  -9   -1.06    1.30
   6  -2   9    2.58    1.46
   6  -2   9    2.32    1.76
   9   1  -9    1.66    1.62
   9   1  -9   -0.53    1.22
  -9  -1   9    1.39    0.79
  -9  -1   9    1.64    1.06
  -9  -1   9    1.32    1.47
   8   1  -9    1.46    1.26
   8   1  -9    2.19    1.61
  -8  -1   9    2.64    1.18
  -8  -1   9    2.10    0.83
  -8  -1   9    4.43    1.35
   7   1  -9    2.81    1.51
   7   1  -9    5.44    1.44
   7   1  -9    0.57    1.01
  -7  -1   9    3.10    1.07
  -7  -1   9    2.75    1.07
  -7  -1   9    2.00    1.29
   6   1  -9   -0.74    0.80
   6   1  -9    0.83    1.00
   6   1  -9    0.77    0.95
  -6  -1   9    1.46    0.78
  -6  -1   9    0.66    0.67
  -6  -1   9    0.33    0.65
   5   1  -9   56.32    3.28
   5   1  -9   55.20    3.52
   5   1  -9   56.84    4.03
  -5  -1   9   50.98    3.15
  -5  -1   9   48.70    3.36
  -5  -1   9   56.48    3.35
  -5  -1   9   55.61    3.05
   4   1  -9   37.32    2.90
   4   1  -9   42.12    2.85
   4   1  -9   42.06    3.30
  -4  -1   9   46.19    2.71
  -4  -1   9   42.85    2.93
  -4  -1   9   41.77    2.86
  -4  -1   9   43.98    2.73
   3   1  -9   69.43    3.66
   3   1  -9   72.71    3.76
  -3  -1   9   69.71    3.04
  -3  -1   9   72.18    3.58
  -3  -1   9   72.56    3.41
  -3  -1   9   68.97    3.69
   2   1  -9  141.40    5.38
   2   1  -9  143.98    5.30
  -2  -1   9  139.42    4.81
  -2  -1   9  143.12    5.34
  -2  -1   9  140.62    5.11
  -2  -1   9  140.46    4.15
  -2  -1   9  140.42    4.07
   1   1  -9    0.17    0.65
   1   1  -9    1.38    0.62
   1   1  -9    0.82    0.97
   1   1  -9    0.81    0.71
  -1  -1   9    1.15    0.69
  -1  -1   9    0.19    0.43
  -1  -1   9    0.25    0.62
  -1  -1   9    0.64    0.60
  -1  -1   9    0.05    0.50
   0   1  -9   22.90    2.18
   0   1  -9   20.64    2.62
   0   1  -9   19.18    2.01
   0   1  -9   18.26    2.25
   0   1  -9   19.47    1.84
   0  -1   9   20.93    1.92
   0  -1   9   19.02    1.68
   0  -1   9   22.78    2.07
   0  -1   9   18.24    1.41
  -1   1  -9   11.17    1.80
  -1   1  -9    8.04    1.66
  -1   1  -9   11.33    2.11
   1  -1   9   10.33    1.34
   1  -1   9   10.42    1.74
   1  -1   9   12.95    1.82
   1  -1   9   10.12    1.84
  -2   1  -9   12.09    2.26
  -2   1  -9   13.38    1.96
  -2   1  -9   15.35    2.19
   2  -1   9   13.79    1.26
   2  -1   9   12.93    1.93
   2  -1   9   14.43    1.78
   2  -1   9   17.14    2.52
  -3   1  -9    3.74    1.30
  -3   1  -9    3.17    0.95
  -3   1  -9    4.34    1.56
  -3   1  -9    2.76    1.22
   3  -1   9    0.75    0.95
   3  -1   9    2.31    0.84
   3  -1   9    3.05    0.65
   3  -1   9    1.22    0.71
   3  -1   9    3.18    1.26
  -4   1  -9   32.99    2.23
  -4   1  -9   32.15    2.75
   4  -1   9   37.30    2.60
  -5   1  -9   33.59    3.49
  -5   1  -9   31.82    2.81
  -5   1  -9   32.92    2.95
  -5   1  -9   31.19    2.36
   5  -1   9   32.92    4.22
   5  -1   9   23.54    2.28
  -6   1  -9    2.84    1.37
  -6   1  -9    1.59    1.28
  -6   1  -9   -0.30    0.96
   6  -1   9   -0.08    1.41
   6  -1   9    2.35    1.77
   9   0  -9    1.42    1.46
   9   0  -9   -1.62    1.19
  -9   0   9   -0.92    1.13
  -9   0   9   -1.63    0.91
   8   0  -9   -0.47    1.08
   8   0  -9    1.00    1.22
   8   0  -9    0.77    1.16
  -8   0   9   -0.33    0.77
  -8   0   9    1.66    1.19
  -8   0   9    0.27    0.64
   7   0  -9    5.60    1.60
   7   0  -9    4.53    1.77
   7   0  -9    5.31    1.40
  -7   0   9    4.44    1.52
  -7   0   9    6.14    1.20
  -7   0   9    6.31    1.50
  -7   0   9    4.82    1.70
   6   0  -9    9.00    2.02
   6   0  -9   13.85    2.21
   6   0  -9   15.88    2.75
  -6   0   9   11.97    2.01
  -6   0   9   16.56    1.66
  -6   0   9    8.48    1.96
  -6   0   9   14.74    2.21
   5   0  -9   27.77    2.48
   5   0  -9   25.81    2.54
  -5   0   9   28.66    2.56
  -5   0   9   24.42    2.48
  -5   0   9   29.30    2.23
  -5   0   9   24.18    2.15
   4   0  -9    8.61    1.86
   4   0  -9    8.94    1.91
   4   0  -9    7.23    1.57
  -4   0   9    9.83    1.66
  -4   0   9    7.59    1.78
  -4   0   9    7.80    1.46
  -4   0   9    9.14    1.80
   3   0  -9   70.38    2.61
   3   0  -9   69.79    3.76
   3   0  -9   72.51    4.02
  -3   0   9   75.75    3.45
  -3   0   9   69.21    3.02
  -3   0   9   78.26    3.76
  -3   0   9   73.11    3.39
   2   0  -9   88.93    4.17
   2   0  -9   71.26    3.59
   2   0  -9   84.50    4.26
   2   0  -9   81.62    3.20
  -2   0   9   82.46    3.33
  -2   0   9   82.49    3.63
  -2   0   9   91.78    4.02
  -2   0   9   79.24    2.77
   1   0  -9    0.43    0.80
   1   0  -9    0.57    0.68
   1   0  -9    1.03    0.87
   1   0  -9   -0.51    0.79
  -1   0   9    0.74    0.38
  -1   0   9    0.75    0.72
  -1   0   9    0.50    0.69
  -1   0   9    0.64    0.66
  -1   0   9   -0.52    0.39
   0   0  -9   -0.49    0.65
   0   0  -9    0.26    0.77
   0   0  -9    0.57    0.87
   0   0   9    0.14    0.40
   0   0   9   -0.11    0.39
   0   0   9    0.62    0.73
   0   0   9    1.31    0.72
  -1   0  -9   50.62    3.02
  -1   0  -9   58.04    3.45
  -1   0  -9   62.89    3.94
   1   0   9   62.49    3.76
   1   0   9   52.99    2.94
   1   0   9   53.32    1.97
   1   0   9   51.63    2.86
  -2   0  -9   15.95    2.62
  -2   0  -9   12.14    1.87
  -2   0  -9   10.03    1.89
   2   0   9   10.04    1.32
   2   0   9   12.35    2.06
   2   0   9    9.73    0.92
   2   0   9    9.69    1.55
   2   0   9   11.87    1.80
  -3   0  -9    1.02    0.96
  -3   0  -9    2.27    0.96
  -3   0  -9    3.35    1.15
   3   0   9    3.91    1.23
   3   0   9    2.28    0.79
   3   0   9    3.02    1.01
   3   0   9    2.38    0.75
  -4   0  -9   26.30    3.55
  -4   0  -9   18.96    2.56
  -4   0  -9   19.40    1.66
  -4   0  -9   26.64    2.40
   4   0   9   21.15    1.27
   4   0   9   24.64    3.40
  -5   0  -9   23.76    3.62
  -5   0  -9   24.56    2.99
   5   0   9   33.76    3.64
  -6   0  -9    7.14    2.46
  -6   0  -9    2.26    1.14
  -6   0  -9    4.90    1.49
   6   0   9    3.31    1.93
   9  -1  -9   -1.90    1.98
   9  -1  -9    1.38    1.59
  -9   1   9   -0.51    1.12
  -9   1   9    1.26    1.13
   8  -1  -9   -0.53    1.20
   8  -1  -9   -0.36    1.06
   8  -1  -9   -2.11    1.02
  -8   1   9    0.52    0.89
  -8   1   9    0.34    1.06
   7  -1  -9   -1.32    0.99
   7  -1  -9   -0.52    0.88
   7  -1  -9    2.03    1.16
  -7   1   9   -0.21    0.71
  -7   1   9   -0.99    0.65
   6  -1  -9    4.38    1.31
   6  -1  -9    2.49    1.31
   6  -1  -9    3.92    1.21
  -6   1   9    1.56    0.90
  -6   1   9    3.23    0.92
  -6   1   9    4.57    1.13
   5  -1  -9   19.21    1.26
   5  -1  -9   21.54    3.07
   5  -1  -9   18.36    2.63
  -5   1   9   20.42    2.07
  -5   1   9   18.95    2.27
  -5   1   9   21.94    1.92
   4  -1  -9    8.26    1.84
   4  -1  -9    8.92    1.14
   4  -1  -9   11.86    2.01
  -4   1   9    9.32    1.74
  -4   1   9   10.28    1.73
  -4   1   9    9.43    1.47
   3  -1  -9   31.56    2.68
   3  -1  -9   29.86    2.94
   3  -1  -9   29.11    1.98
  -3   1   9   32.34    1.90
  -3   1   9   28.78    2.73
  -3   1   9   30.04    2.29
   2  -1  -9    4.64    1.49
   2  -1  -9    4.56    1.32
   2  -1  -9    1.24    0.80
   2  -1  -9    3.62    1.17
  -2   1   9    3.80    1.06
  -2   1   9    3.84    0.77
  -2   1   9    3.24    0.71
  -2   1   9    3.09    1.21
  -2   1   9    3.68    0.92
   1  -1  -9   18.24    2.45
   1  -1  -9   16.77    1.74
   1  -1  -9   17.35    2.29
   1  -1  -9   17.07    2.51
  -1   1   9   15.48    1.03
  -1   1   9   17.70    1.80
  -1   1   9   18.94    1.13
  -1   1   9   20.40    1.83
  -1   1   9   16.28    0.87
   0  -1  -9   -0.11    0.84
   0  -1  -9   -0.98    0.71
   0  -1  -9    0.82    0.71
   0   1   9    0.52    0.52
   0   1   9    1.32    0.77
   0   1   9    1.00    0.77
  -1  -1  -9    7.72    1.79
  -1  -1  -9    6.18    1.51
  -1  -1  -9    5.28    1.21
   1   1   9    6.81    1.38
   1   1   9    5.53    1.55
   1   1   9    5.78    1.28
   1   1   9    6.01    1.36
  -2  -1  -9    3.77    1.15
  -2  -1  -9    7.25    1.95
  -2  -1  -9    3.85    1.13
   2   1   9    4.73    1.12
   2   1   9    4.75    1.10
   2   1   9    3.38    1.32
  -3  -1  -9    0.24    0.87
  -3  -1  -9    1.53    0.86
  -3  -1  -9    0.55    1.04
   3   1   9    0.80    1.07
   3   1   9    1.09    0.67
   3   1   9   -0.02    0.39
  -4  -1  -9    6.76    2.00
  -4  -1  -9    4.56    1.26
   4   1   9    6.67    1.92
   4   1   9    2.74    0.81
  -5  -1  -9    7.78    1.22
  -5  -1  -9   10.70    1.90
  -5  -1  -9   12.77    2.65
   5   1   9   13.45    2.95
   9  -2  -9   -0.25    2.02
   9  -2  -9   -1.89    1.42
  -9   2   9    1.08    1.06
  -9   2   9    2.69    1.38
   8  -2  -9    3.33    1.49
   8  -2  -9    3.62    1.48
  -8   2   9    2.10    1.06
  -8   2   9    1.83    1.25
   7  -2  -9    4.30    1.62
   7  -2  -9    1.75    0.81
   7  -2  -9    2.90    1.50
  -7   2   9    4.01    1.71
  -7   2   9    3.03    1.23
   6  -2  -9    3.40    1.21
   6  -2  -9    1.54    1.20
   6  -2  -9    2.15    0.82
   6  -2  -9    1.60    0.96
  -6   2   9    1.49    0.88
  -6   2   9    0.38    0.99
   5  -2  -9    0.48    0.68
   5  -2  -9   -1.13    0.77
   5  -2  -9   -0.48    0.89
   5  -2  -9   -1.22    0.95
  -5   2   9   -0.62    0.34
  -5   2   9   -0.65    0.73
  -5   2   9    0.67    0.62
   4  -2  -9    1.33    0.85
   4  -2  -9    4.32    1.36
   4  -2  -9    2.26    0.84
  -4   2   9    1.21    0.81
  -4   2   9    1.91    0.73
  -4   2   9    3.15    1.26
   3  -2  -9    4.97    1.16
   3  -2  -9    5.37    1.55
   3  -2  -9    4.35    1.34
  -3   2   9    6.17    1.41
  -3   2   9    2.56    0.82
  -3   2   9    4.46    1.20
   2  -2  -9    3.06    1.24
   2  -2  -9    2.94    1.20
   2  -2  -9    1.04    1.08
  -2   2   9    3.83    1.24
  -2   2   9    3.42    1.11
  -2   2   9    4.27    0.70
   1  -2  -9    1.99    0.93
   1  -2  -9    1.11    1.03
   1  -2  -9    0.36    0.89
  -1   2   9    0.67    0.23
  -1   2   9    1.72    0.91
  -1   2   9    0.60    0.71
  -1   2   9    1.13    0.44
   0  -2  -9   13.74    2.06
   0  -2  -9   10.47    2.23
   0  -2  -9   13.03    2.01
   0   2   9   14.99    2.01
   0   2   9   11.38    2.10
  -1  -2  -9   16.21    2.60
  -1  -2  -9   13.80    2.04
  -1  -2  -9   14.39    2.06
   1   2   9   14.83    1.98
   1   2   9   14.00    2.45
   1   2   9   14.75    1.84
  -2  -2  -9    0.77    0.91
  -2  -2  -9    2.00    1.07
  -2  -2  -9    0.21    0.70
   2   2   9   -0.59    0.84
   2   2   9   -0.03    0.57
   2   2   9   -0.45    0.73
  -3  -2  -9    2.73    1.07
  -3  -2  -9    3.45    1.19
  -3  -2  -9    2.66    1.16
   3   2   9    2.86    1.60
   3   2   9    2.13    0.95
  -4  -2  -9   13.03    2.06
  -4  -2  -9   19.94    3.41
  -4  -2  -9   16.15    2.28
   4   2   9   15.70    2.85
  -5  -2  -9   18.21    3.36
   5   2   9   24.02    3.66
   5   2   9   17.86    1.69
   8  -3  -9   -0.69    1.28
   8  -3  -9    0.11    1.33
   8  -3  -9    0.66    1.23
  -8   3   9   -2.14    0.80
  -8   3   9    0.54    1.02
   7  -3  -9    4.03    1.79
   7  -3  -9    6.73    1.99
   7  -3  -9    4.33    1.58
   7  -3  -9    1.41    1.39
  -7   3   9    5.37    1.18
  -7   3   9    5.34    2.03
   6  -3  -9   -0.98    0.92
   6  -3  -9   -0.86    0.81
   6  -3  -9   -0.74    0.87
  -6   3   9   -1.02    0.89
  -6   3   9   -0.29    0.66
   5  -3  -9    3.56    1.08
   5  -3  -9    1.66    1.23
   5  -3  -9    4.55    1.61
   5  -3  -9    3.82    1.74
  -5   3   9    3.49    1.27
  -5   3   9    3.69    1.03
   4  -3  -9   10.53    1.97
   4  -3  -9    8.09    1.97
  -4   3   9    9.49    2.15
  -4   3   9    7.67    1.17
   3  -3  -9    3.24    1.51
   3  -3  -9    2.20    1.04
  -3   3   9    2.06    0.96
  -3   3   9    1.65    0.61
   2  -3  -9   14.52    2.11
   2  -3  -9   14.17    2.38
   2  -3  -9   14.52    2.17
  -2   3   9   13.97    2.02
  -2   3   9   12.78    1.09
  -2   3   9   13.56    2.12
   1  -3  -9    3.56    1.20
   1  -3  -9    6.71    1.79
   1  -3  -9    5.68    1.52
  -1   3   9    9.35    1.68
  -1   3   9    6.91    1.52
   0  -3  -9    5.66    1.62
   0  -3  -9    3.59    1.10
   0  -3  -9    5.60    1.20
   0   3   9    3.53    1.13
   0   3   9    4.45    1.60
   0   3   9    2.57    0.96
  -1  -3  -9   20.68    2.50
  -1  -3  -9   20.82    2.62
  -1  -3  -9   15.49    2.61
   1   3   9   17.10    2.28
   1   3   9   21.95    3.20
  -2  -3  -9    3.55    1.10
  -2  -3  -9    0.31    0.91
   2   3   9    2.39    1.01
  -3  -3  -9   -0.40    0.77
  -3  -3  -9   -0.69    0.79
  -3  -3  -9    1.07    1.23
   3   3   9    0.52    1.15
   3   3   9   -0.57    0.91
   3   3   9    0.76    0.94
  -4  -3  -9    6.36    2.18
  -4  -3  -9    1.40    0.93
   4   3   9    1.02    1.17
   4   3   9    0.22    0.97
   8  -4  -9    1.44    1.11
   8  -4  -9   -1.80    1.10
  -8   4   9   -0.73    0.92
  -8   4   9   -0.06    1.11
   7  -4  -9   -0.71    0.95
   7  -4  -9    1.96    1.19
   7  -4  -9    2.76    1.32
  -7   4   9    0.87    0.83
  -7   4   9   -1.15    1.04
   6  -4  -9    3.49    1.44
   6  -4  -9    7.79    1.97
   6  -4  -9    6.87    1.83
  -6   4   9    5.62    1.64
  -6   4   9    5.22    1.26
   5  -4  -9   13.55    2.57
   5  -4  -9   12.78    2.33
   5  -4  -9   12.72    2.76
  -5   4   9   11.58    1.63
  -5   4   9    8.98    1.95
   4  -4  -9    2.49    1.18
   4  -4  -9    3.55    1.46
  -4   4   9    1.87    0.87
  -4   4   9    3.07    1.31
  -4   4   9    2.36    0.73
   3  -4  -9   -0.45    0.82
   3  -4  -9    1.12    1.11
  -3   4   9    0.75    0.81
  -3   4   9    1.10    0.86
  -3   4   9   -0.27    0.42
   2  -4  -9    5.31    1.63
   2  -4  -9    8.32    1.68
   2  -4  -9   10.22    1.85
  -2   4   9   10.10    1.82
  -2   4   9    9.26    1.90
  -2   4   9    9.08    1.27
   1  -4  -9   18.47    2.37
   1  -4  -9   15.68    2.61
   1  -4  -9   14.94    2.18
  -1   4   9   10.62    1.89
  -1   4   9   15.79    1.20
  -1   4   9   18.87    2.66
   0  -4  -9    0.34    0.74
   0  -4  -9    1.03    1.02
   0  -4  -9    1.80    0.98
   0   4   9    1.09    0.68
   0   4   9   -1.07    0.58
   0   4   9    0.81    1.18
  -1  -4  -9   -0.77    0.70
  -1  -4  -9    1.59    1.05
  -1  -4  -9   -0.34    0.55
   1   4   9    0.01    0.77
   1   4   9    0.37    0.76
  -2  -4  -9    1.30    1.25
  -2  -4  -9   -0.59    1.03
  -2  -4  -9   -0.24    0.59
   2   4   9    1.47    0.91
   2   4   9    0.81    1.21
   2   4   9    0.99    0.81
  -3  -4  -9    1.82    0.99
  -3  -4  -9    2.17    1.46
   3   4   9    4.49    1.49
   3   4   9    4.66    1.91
   7  -5  -9   -0.06    1.38
   7  -5  -9    1.20    1.31
   7  -5  -9    1.97    1.50
  -7   5   9    1.37    1.22
  -7   5   9   -0.02    0.86
   6  -5  -9    1.79    1.14
   6  -5  -9    1.68    1.40
   6  -5  -9    0.61    1.19
  -6   5   9   -0.23    1.09
  -6   5   9    0.99    0.74
  -6   5   9    0.35    0.91
   5  -5  -9    1.46    1.02
   5  -5  -9    0.09    1.17
  -5   5   9    0.90    1.23
  -5   5   9    1.05    0.76
  -5   5   9    0.25    0.74
   4  -5  -9    2.68    1.47
   4  -5  -9    4.10    1.50
  -4   5   9    1.99    1.35
  -4   5   9    2.24    0.72
  -4   5   9    5.15    1.70
   3  -5  -9    5.88    1.63
   3  -5  -9    2.93    1.39
  -3   5   9    7.32    1.69
   2  -5  -9    0.70    1.15
   2  -5  -9   -1.46    1.14
  -2   5   9    0.79    0.92
  -2   5   9   -0.95    0.63
  -2   5   9    0.04    1.01
   1  -5  -9    7.72    1.70
   1  -5  -9    6.43    1.50
   1  -5  -9    2.83    1.24
  -1   5   9    6.70    1.70
  -1   5   9    4.34    0.88
   0  -5  -9    7.65    1.66
   0  -5  -9    6.26    1.45
   0   5   9    5.43    1.55
  -1  -5  -9    9.95    2.25
  -1  -5  -9   12.27    1.98
  -1  -5  -9    8.99    1.64
   1   5   9    9.87    1.98
  -2  -5  -9    2.15    1.61
  -2  -5  -9    1.25    0.99
   2   5   9    3.26    1.72
   2   5   9    3.10    1.33
  -3  -5  -9    1.15    1.46
  -3  -5  -9    1.06    1.05
   3   5   9    2.96    1.66
   7  -6  -9    3.20    1.67
   7  -6  -9    1.01    1.36
   7  -6  -9    0.13    1.35
  -7   6   9    4.69    2.38
  -7   6   9    5.77    1.80
   6  -6  -9    3.91    1.61
   6  -6  -9    4.56    1.65
   6  -6  -9    7.67    1.95
  -6   6   9    5.49    1.36
  -6   6   9    4.03    1.62
  -6   6   9    5.26    1.44
   5  -6  -9    2.24    1.49
   5  -6  -9    2.00    1.06
  -5   6   9    0.69    1.23
  -5   6   9    1.50    1.32
  -5   6   9   -0.39    0.89
   4  -6  -9    1.94    1.24
   4  -6  -9    2.37    1.35
  -4   6   9    0.50    1.21
  -4   6   9    0.69    0.69
  -4   6   9    1.26    1.10
   3  -6  -9   -0.80    1.04
   3  -6  -9    0.07    0.86
  -3   6   9    0.73    0.77
  -3   6   9    0.17    0.85
  -3   6   9    1.48    1.03
   2  -6  -9    9.02    2.25
   2  -6  -9   11.62    2.12
  -2   6   9    8.81    2.10
   1  -6  -9    5.53    1.92
   1  -6  -9    9.46    2.03
   1  -6  -9   13.67    2.13
  -1   6   9    9.22    2.17
  -1   6   9    4.32    1.25
   0  -6  -9    3.22    1.53
   0  -6  -9    3.73    1.39
   0   6   9    4.49    0.92
   0   6   9    5.12    1.72
  -1  -6  -9    1.80    1.12
  -1  -6  -9    1.08    1.29
   1   6   9    2.09    1.35
   6  -7  -9    0.19    1.20
   6  -7  -9   -0.67    1.25
   6  -7  -9    2.99    1.44
  -6   7   9   -0.61    1.13
  -6   7   9    3.21    1.65
   5  -7  -9    0.26    1.27
   5  -7  -9    1.47    1.46
  -5   7   9    0.92    1.07
  -5   7   9   -0.02    1.56
  -5   7   9    2.80    1.54
   4  -7  -9    7.46    2.09
   4  -7  -9    5.92    1.99
   4  -7  -9    7.45    1.91
  -4   7   9    6.51    1.79
  -4   7   9    9.08    2.22
  -4   7   9    9.56    1.82
  -4   7   9    4.67    0.99
   3  -7  -9    3.34    1.54
   3  -7  -9    5.34    1.90
  -3   7   9    2.93    1.21
  -3   7   9   -0.61    1.40
  -3   7   9    4.29    1.53
   2  -7  -9   -0.48    1.28
   2  -7  -9    1.66    1.09
  -2   7   9    2.54    1.11
  -2   7   9    3.09    1.43
   1  -7  -9    0.72    1.20
   1  -7  -9    1.70    1.12
  -1   7   9   -0.08    1.22
   0  -7  -9    3.08    1.00
   0  -7  -9    1.53    1.35
   0   7   9    1.71    1.07
   2  10 -10    2.13    1.34
   2  10 -10    0.09    1.14
  -2 -10  10    1.83    1.20
  -2 -10  10    1.05    1.19
   1  10 -10    0.21    1.20
   1  10 -10    0.61    1.32
  -1 -10  10    2.43    1.16
  -1 -10  10    2.22    1.27
   0  10 -10    0.43    1.67
   0  10 -10   -0.48    1.09
   0  10 -10   -1.36    0.98
   0 -10  10    0.58    1.07
   0 -10  10    0.13    0.93
  -1  10 -10    0.43    1.10
  -1  10 -10    1.47    1.93
  -1  10 -10    0.37    1.20
   1 -10  10    1.22    1.41
  -2  10 -10    2.86    1.88
  -2  10 -10    1.64    1.31
  -2  10 -10    1.89    1.33
   2 -10  10    3.37    1.57
   2 -10  10    0.55    1.35
   3   9 -10    2.02    1.34
   3   9 -10    1.60    1.27
  -3  -9  10    0.99    1.07
  -3  -9  10    0.64    1.19
   2   9 -10    4.97    1.81
   2   9 -10    8.46    2.11
   2   9 -10    6.33    1.84
  -2  -9  10    6.73    1.49
  -2  -9  10    3.16    1.21
   1   9 -10    5.40    1.66
   1   9 -10    7.27    2.02
   1   9 -10    2.73    1.71
  -1  -9  10    4.77    1.52
  -1  -9  10    5.62    1.38
   0   9 -10   -0.05    1.31
   0   9 -10   -1.06    0.94
   0   9 -10   -0.23    1.10
   0  -9  10   -0.62    0.64
   0  -9  10    1.74    1.05
  -1   9 -10    1.80    0.90
  -1   9 -10   -0.02    1.18
   1  -9  10    1.83    1.21
   1  -9  10   -0.05    1.07
  -2   9 -10    1.38    1.37
  -2   9 -10   -1.21    0.69
  -2   9 -10    0.48    1.56
   2  -9  10    1.23    1.09
   2  -9  10    0.74    1.20
  -3   9 -10    5.84    2.00
  -3   9 -10    6.78    1.65
   3  -9  10    2.92    1.33
   3  -9  10    7.05    1.97
   3  -9  10    8.75    1.75
   5   8 -10    1.55    1.34
  -5  -8  10    1.26    0.99
  -5  -8  10    0.33    1.15
   4   8 -10   15.30    2.75
   4   8 -10   19.69    2.94
  -4  -8  10   17.93    2.50
  -4  -8  10   18.65    2.86
   3   8 -10    0.93    1.45
   3   8 -10   -0.32    1.01
  -3  -8  10   -1.64    0.73
  -3  -8  10    0.20    0.82
   2   8 -10    8.25    1.95
   2   8 -10    5.37    1.78
   2   8 -10    7.71    1.54
  -2  -8  10    6.30    1.66
  -2  -8  10    5.81    1.69
  -2  -8  10    6.51    1.61
   1   8 -10    4.09    1.41
   1   8 -10    6.44    1.60
  -1  -8  10    4.08    1.44
  -1  -8  10    7.17    1.82
  -1  -8  10    3.52    1.65
   0   8 -10   -0.76    0.52
   0   8 -10   -0.13    0.94
   0   8 -10    0.97    0.87
   0   8 -10    1.39    1.17
   0  -8  10   -0.38    0.92
   0  -8  10    0.06    0.81
  -1   8 -10   -0.48    0.67
  -1   8 -10   -0.47    0.90
   1  -8  10   -0.74    0.77
   1  -8  10    1.21    1.05
  -2   8 -10    3.05    1.37
  -2   8 -10    5.86    1.94
   2  -8  10    6.99    1.73
   2  -8  10    7.15    1.85
   2  -8  10    4.97    2.01
  -3   8 -10    0.64    0.95
  -3   8 -10    0.32    1.00
  -3   8 -10    2.51    1.26
   3  -8  10   -1.41    0.85
   3  -8  10   -0.86    0.92
   3  -8  10    1.84    1.45
  -4   8 -10    3.21    1.28
  -4   8 -10    1.49    1.79
  -4   8 -10    2.90    1.26
   4  -8  10    2.88    1.54
   4  -8  10   -0.10    1.18
   4  -8  10    3.27    1.31
   6   7 -10    2.83    2.00
  -6  -7  10    6.33    1.64
  -6  -7  10    1.77    1.20
   5   7 -10    3.55    1.67
  -5  -7  10    1.19    0.98
  -5  -7  10    3.27    1.34
   4   7 -10   -0.64    1.92
   4   7 -10   -0.61    0.85
   4   7 -10    1.22    1.22
  -4  -7  10    1.69    1.22
  -4  -7  10   -0.44    0.79
  -4  -7  10   -0.17    1.01
  -4  -7  10   -0.53    1.04
   3   7 -10    5.20    1.72
   3   7 -10    7.01    1.83
   3   7 -10    6.23    1.53
  -3  -7  10    6.34    1.45
  -3  -7  10    5.92    1.59
  -3  -7  10    5.03    1.06
  -3  -7  10   10.22    2.01
   2   7 -10   27.79    2.48
   2   7 -10   28.90    2.65
  -2  -7  10   21.54    2.92
  -2  -7  10   27.17    1.89
   1   7 -10    4.48    1.34
   1   7 -10    6.90    1.78
   1   7 -10    4.26    1.05
  -1  -7  10    4.55    1.35
  -1  -7  10    4.54    1.66
  -1  -7  10    4.14    1.23
   0   7 -10    2.99    0.94
   0   7 -10    3.28    1.25
   0   7 -10    2.10    1.08
   0  -7  10    4.08    1.28
   0  -7  10    3.45    1.23
  -1   7 -10    7.47    1.41
  -1   7 -10    8.42    1.90
  -1   7 -10    9.09    1.78
   1  -7  10    6.55    1.61
   1  -7  10    9.31    1.94
   1  -7  10    9.44    2.39
  -2   7 -10   -0.62    1.01
  -2   7 -10   -1.96    0.77
  -2   7 -10    0.70    0.94
   2  -7  10   -0.18    0.94
   2  -7  10    0.91    0.97
   2  -7  10    0.66    0.84
  -3   7 -10   24.37    2.23
  -3   7 -10   20.24    2.58
  -3   7 -10   22.26    3.25
   3  -7  10   24.64    2.26
   3  -7  10   21.31    2.98
   3  -7  10   21.09    3.01
  -4   7 -10    3.41    1.34
  -4   7 -10    2.35    1.06
  -4   7 -10    1.28    1.13
   4  -7  10    1.81    0.96
   4  -7  10    1.97    1.27
   4  -7  10    2.49    1.29
   4  -7  10    3.20    1.62
  -5   7 -10   -1.47    1.05
  -5   7 -10    1.03    1.45
  -5   7 -10   -0.87    0.98
  -5   7 -10    0.19    1.21
   5  -7  10   -1.53    1.11
   5  -7  10   -0.41    1.20
   5  -7  10    0.38    1.44
   5  -7  10   -0.02    0.96
   6   6 -10    2.85    1.53
   6   6 -10    0.78    1.00
  -6  -6  10    2.82    1.20
  -6  -6  10    3.62    1.19
  -6  -6  10    4.71    1.38
   5   6 -10   10.38    2.39
   5   6 -10    7.43    1.56
  -5  -6  10    6.26    1.56
  -5  -6  10    5.72    1.62
  -5  -6  10    6.62    1.50
   4   6 -10    5.49    1.21
   4   6 -10    6.72    1.89
  -4  -6  10    8.20    1.84
  -4  -6  10    7.57    1.96
  -4  -6  10    7.34    1.45
   3   6 -10   -0.10    0.82
   3   6 -10   -0.08    0.68
   3   6 -10   -1.86    0.98
   3   6 -10    1.44    0.88
  -3  -6  10    1.36    1.04
  -3  -6  10    0.61    0.47
  -3  -6  10   -0.63    0.63
  -3  -6  10    0.77    1.20
  -3  -6  10    1.17    1.03
   2   6 -10    2.25    1.34
   2   6 -10    1.40    1.02
   2   6 -10    3.47    0.99
   2   6 -10    3.12    1.30
  -2  -6  10    5.17    1.45
  -2  -6  10    3.41    1.11
  -2  -6  10    0.54    0.84
  -2  -6  10    1.54    0.71
   1   6 -10   23.77    2.87
   1   6 -10   26.20    2.28
  -1  -6  10   23.57    2.02
  -1  -6  10   24.61    2.02
  -1  -6  10   22.69    2.86
  -1  -6  10   29.42    2.54
  -1  -6  10   27.66    2.55
   0   6 -10   22.74    1.99
   0   6 -10   27.49    2.23
   0   6 -10   30.38    2.74
   0  -6  10   28.01    2.58
   0  -6  10   29.16    2.36
   0  -6  10   26.26    2.32
  -1   6 -10   36.42    3.19
  -1   6 -10   32.45    2.38
   1  -6  10   36.18    2.82
   1  -6  10   33.21    2.92
  -2   6 -10   15.31    2.66
  -2   6 -10   16.73    2.24
  -2   6 -10   16.18    2.04
   2  -6  10   19.94    2.45
   2  -6  10   17.99    2.66
   2  -6  10   14.70    2.38
  -3   6 -10   11.09    2.26
  -3   6 -10   11.29    1.89
  -3   6 -10   10.13    1.69
   3  -6  10    8.89    1.88
   3  -6  10   12.78    2.04
   3  -6  10   12.05    2.46
  -4   6 -10   11.99    2.14
  -4   6 -10   10.85    2.34
  -4   6 -10   10.07    1.79
  -4   6 -10    9.02    2.77
   4  -6  10   11.69    1.87
   4  -6  10   10.81    1.10
   4  -6  10   12.78    2.31
   4  -6  10   13.01    2.61
   4  -6  10    9.75    2.22
  -5   6 -10   -1.22    0.98
  -5   6 -10   -0.72    1.24
  -5   6 -10    1.04    1.00
  -5   6 -10    1.50    1.50
   5  -6  10    0.94    1.28
   5  -6  10    0.69    1.01
   5  -6  10    2.15    1.38
   5  -6  10    1.71    1.13
   7   5 -10    3.48    1.41
  -7  -5  10    2.57    1.00
  -7  -5  10    1.47    1.02
  -7  -5  10    3.98    1.65
   6   5 -10    0.80    1.31
   6   5 -10    0.91    1.23
   6   5 -10    0.19    0.84
  -6  -5  10   -0.40    0.55
  -6  -5  10    0.03    0.78
   5   5 -10    3.27    1.81
   5   5 -10    0.61    1.01
   5   5 -10    0.99    0.78
  -5  -5  10   -0.28    1.08
  -5  -5  10    2.59    1.07
  -5  -5  10    2.10    1.03
   4   5 -10    5.19    1.91
   4   5 -10    3.54    1.12
   4   5 -10    4.63    1.27
  -4  -5  10    7.22    1.57
  -4  -5  10    5.63    1.39
  -4  -5  10    4.61    1.56
   3   5 -10   46.85    3.53
   3   5 -10   40.89    3.16
   3   5 -10   47.77    3.09
  -3  -5  10   47.44    3.17
  -3  -5  10   43.78    3.21
  -3  -5  10   41.28    2.92
   2   5 -10   29.91    2.33
   2   5 -10   27.83    2.47
  -2  -5  10   31.12    2.78
  -2  -5  10   29.89    1.83
  -2  -5  10   28.76    2.40
  -2  -5  10   26.08    2.39
  -2  -5  10   26.27    2.51
   1   5 -10    9.45    1.94
   1   5 -10   11.02    1.60
  -1  -5  10   12.55    1.96
  -1  -5  10    7.49    2.12
  -1  -5  10   11.49    1.86
  -1  -5  10    9.91    2.21
  -1  -5  10   13.65    1.78
   0   5 -10    2.80    0.70
   0   5 -10    5.20    1.20
   0   5 -10    4.18    1.35
   0  -5  10    4.36    1.19
   0  -5  10    3.43    1.23
  -1   5 -10   25.14    1.93
  -1   5 -10   22.65    2.33
  -1   5 -10   26.99    2.67
   1  -5  10   25.10    3.27
   1  -5  10   28.38    2.68
   1  -5  10   26.77    2.44
  -2   5 -10    6.07    1.67
  -2   5 -10    6.29    1.27
  -2   5 -10    6.56    1.96
  -2   5 -10    7.04    1.28
   2  -5  10    4.31    1.55
   2  -5  10    8.16    1.76
   2  -5  10    3.99    1.15
   2  -5  10    7.20    1.47
  -3   5 -10   11.69    2.23
  -3   5 -10   13.67    1.70
  -3   5 -10   16.48    2.64
   3  -5  10   10.91    2.09
   3  -5  10   15.81    1.40
   3  -5  10   14.30    2.49
   3  -5  10   13.03    1.93
  -4   5 -10    1.88    0.98
  -4   5 -10    1.25    1.21
  -4   5 -10    0.33    1.03
  -4   5 -10    1.41    1.12
   4  -5  10    2.61    1.48
   4  -5  10    3.17    1.31
   4  -5  10    3.65    1.25
   4  -5  10    3.53    1.43
  -5   5 -10    4.63    1.43
  -5   5 -10    4.35    1.88
   5  -5  10    4.26    1.84
   5  -5  10    5.11    1.25
   5  -5  10    1.35    1.18
   5  -5  10    2.49    1.54
   7   4 -10    0.69    1.12
   7   4 -10   -1.51    0.99
  -7  -4  10    0.93    0.93
  -7  -4  10   -0.42    0.83
  -7  -4  10   -1.26    0.82
   6   4 -10    0.52    0.93
   6   4 -10    0.13    0.79
  -6  -4  10    0.11    1.12
  -6  -4  10    0.83    0.69
  -6  -4  10    0.46    0.86
  -6  -4  10    0.57    1.01
   5   4 -10   -0.05    0.98
   5   4 -10   -0.36    1.02
   5   4 -10    0.37    0.78
  -5  -4  10    0.37    0.68
  -5  -4  10   -0.02    0.97
  -5  -4  10    1.30    0.91
   4   4 -10   -0.15    0.59
   4   4 -10    1.93    1.28
   4   4 -10    1.29    0.87
   4   4 -10    1.10    0.98
  -4  -4  10    0.12    0.81
  -4  -4  10    0.63    1.01
  -4  -4  10   -0.47    0.58
   3   4 -10    0.47    0.49
   3   4 -10    1.23    0.92
   3   4 -10    1.99    0.95
  -3  -4  10    0.84    0.79
  -3  -4  10    1.49    0.74
   2   4 -10   19.47    1.35
   2   4 -10   28.35    2.40
   2   4 -10   19.97    2.69
  -2  -4  10   22.92    2.24
  -2  -4  10   25.61    2.40
  -2  -4  10   22.18    1.55
  -2  -4  10   23.75    2.09
   1   4 -10   32.07    1.78
   1   4 -10   36.30    3.08
   1   4 -10   33.01    2.11
   1   4 -10   32.67    2.64
  -1  -4  10   32.81    2.17
  -1  -4  10   33.33    2.52
  -1  -4  10   35.58    2.29
  -1  -4  10   38.89    2.81
   0   4 -10    6.91    1.22
   0   4 -10    4.49    0.97
   0   4 -10    8.71    1.67
   0  -4  10    7.89    1.53
   0  -4  10    8.60    1.76
   0  -4  10    8.12    1.63
  -1   4 -10   65.58    3.78
  -1   4 -10   67.18    4.07
  -1   4 -10   64.57    2.69
  -1   4 -10   60.85    3.00
   1  -4  10   61.03    3.61
   1  -4  10   62.03    3.71
   1  -4  10   58.78    3.31
  -2   4 -10   34.71    2.98
  -2   4 -10   29.84    2.81
  -2   4 -10   27.36    1.71
   2  -4  10   27.27    3.51
   2  -4  10   26.52    2.61
   2  -4  10   32.44    2.40
   2  -4  10   26.57    2.12
  -3   4 -10    1.11    0.59
  -3   4 -10    1.90    1.14
  -3   4 -10    2.35    1.22
   3  -4  10    1.86    1.17
   3  -4  10    0.17    0.65
   3  -4  10    0.65    1.00
   3  -4  10    1.42    0.75
  -4   4 -10    0.96    1.21
  -4   4 -10   -0.85    0.49
  -4   4 -10    0.69    1.32
  -4   4 -10   -0.85    0.81
   4  -4  10   -1.27    0.94
   4  -4  10    0.21    0.66
   4  -4  10   -0.05    0.76
  -5   4 -10    2.28    1.49
  -5   4 -10   -0.12    1.13
  -5   4 -10    1.81    1.12
  -5   4 -10   -0.43    0.69
   5  -4  10    0.94    1.34
   5  -4  10    0.86    0.76
   5  -4  10    0.62    1.20
   8   3 -10    0.18    1.44
   8   3 -10    1.98    1.55
  -8  -3  10    1.56    1.10
  -8  -3  10   -0.70    0.82
  -8  -3  10   -0.83    0.72
   7   3 -10    1.50    1.18
   7   3 -10    0.50    1.35
   7   3 -10   -0.25    1.23
  -7  -3  10    2.63    0.99
  -7  -3  10    1.91    1.02
  -7  -3  10    0.97    1.31
   6   3 -10    1.92    1.06
   6   3 -10    2.84    1.55
   6   3 -10    3.56    1.15
  -6  -3  10    0.28    0.78
  -6  -3  10    1.50    1.05
  -6  -3  10    0.61    0.94
  -6  -3  10   -0.36    1.05
   5   3 -10   -0.15    0.80
   5   3 -10    1.74    1.33
   5   3 -10    0.67    0.81
   5   3 -10    1.09    1.12
  -5  -3  10    0.98    0.94
  -5  -3  10    0.77    0.74
  -5  -3  10   -0.58    0.53
  -5  -3  10   -1.23    0.98
   4   3 -10    0.73    0.96
   4   3 -10    1.65    1.00
   4   3 -10    1.28    1.38
  -4  -3  10   -0.17    0.79
  -4  -3  10    1.16    0.81
   3   3 -10   10.36    1.83
   3   3 -10   10.57    1.85
  -3  -3  10   11.75    1.02
  -3  -3  10   11.03    1.81
  -3  -3  10    7.96    1.77
  -3  -3  10   10.73    1.90
   2   3 -10    1.74    0.96
   2   3 -10    3.46    1.05
   2   3 -10    1.82    1.02
  -2  -3  10    1.37    0.77
  -2  -3  10    1.99    0.65
  -2  -3  10    1.20    0.79
  -2  -3  10    2.90    1.01
   1   3 -10   10.40    1.88
   1   3 -10    9.24    1.46
   1   3 -10   11.66    2.40
  -1  -3  10    9.66    1.48
  -1  -3  10    9.83    1.35
  -1  -3  10    8.85    1.77
  -1  -3  10    8.76    1.54
   0   3 -10    9.17    1.89
   0   3 -10    7.16    1.34
   0   3 -10    7.34    1.74
   0  -3  10    7.14    1.69
   0  -3  10    6.14    1.34
   0  -3  10    6.15    0.99
  -1   3 -10    0.79    0.74
  -1   3 -10    1.92    0.86
  -1   3 -10    1.08    0.50
  -1   3 -10    2.36    1.24
   1  -3  10    0.07    0.72
   1  -3  10    1.69    0.97
  -2   3 -10   58.10    3.83
  -2   3 -10   57.25    3.84
   2  -3  10   60.07    3.55
   2  -3  10   57.95    3.82
   2  -3  10   67.63    3.37
  -3   3 -10    3.57    1.60
  -3   3 -10    5.40    1.75
   3  -3  10    3.34    1.43
   3  -3  10    4.00    1.04
   3  -3  10    5.85    1.50
   3  -3  10    3.86    0.79
  -4   3 -10    7.32    1.92
  -4   3 -10    4.08    1.65
  -4   3 -10    3.47    1.13
   4  -3  10    6.21    1.84
   4  -3  10    7.22    1.32
   4  -3  10    6.18    1.90
  -5   3 -10    4.68    1.76
  -5   3 -10    1.92    1.21
  -5   3 -10    3.47    1.16
   5  -3  10    3.65    1.62
   5  -3  10    2.58    1.46
   5  -3  10    5.10    1.75
   5  -3  10    0.81    0.83
   8   2 -10    0.32    1.41
  -8  -2  10   -0.10    0.71
  -8  -2  10    0.12    0.95
  -8  -2  10    0.77    0.77
   7   2 -10    0.59    1.00
   7   2 -10    0.33    1.29
  -7  -2  10    0.26    1.00
  -7  -2  10    0.10    0.77
  -7  -2  10    0.13    0.77
   6   2 -10    0.25    0.90
   6   2 -10    2.66    1.11
   6   2 -10   -0.04    0.85
   6   2 -10    3.56    1.71
  -6  -2  10    0.48    0.98
  -6  -2  10    1.87    1.37
  -6  -2  10    1.30    0.70
   5   2 -10    4.47    1.43
   5   2 -10    4.26    1.29
   5   2 -10    5.00    1.76
  -5  -2  10    3.20    1.37
  -5  -2  10    6.76    1.58
  -5  -2  10    2.43    1.02
  -5  -2  10    3.69    1.08
   4   2 -10    2.11    1.02
   4   2 -10    4.55    1.54
   4   2 -10    3.87    1.16
  -4  -2  10    2.69    1.09
  -4  -2  10    1.77    1.00
  -4  -2  10   -0.70    1.01
   3   2 -10   22.30    2.24
   3   2 -10   21.39    2.19
  -3  -2  10   19.00    2.60
  -3  -2  10   20.03    1.98
  -3  -2  10   21.00    2.04
   2   2 -10  112.46    4.90
   2   2 -10  113.61    4.96
  -2  -2  10  114.84    4.78
  -2  -2  10  112.99    3.72
  -2  -2  10  113.22    4.55
   1   2 -10    3.34    1.17
  -1  -2  10    3.02    1.22
  -1  -2  10    3.91    0.84
  -1  -2  10    3.69    1.05
  -1  -2  10    3.77    1.06
  -1  -2  10    3.62    1.08
   0   2 -10    2.36    1.01
   0   2 -10    1.42    1.07
   0   2 -10    0.97    0.90
   0  -2  10    1.15    1.00
   0  -2  10    1.99    0.76
   0  -2  10    0.33    0.69
   0  -2  10    1.03    0.68
  -1   2 -10   56.80    3.74
  -1   2 -10   54.68    3.59
  -1   2 -10   50.85    3.67
   1  -2  10   50.87    3.36
   1  -2  10   52.65    2.95
   1  -2  10   54.20    3.31
   1  -2  10   46.29    2.51
  -2   2 -10    9.94    2.12
  -2   2 -10    6.57    1.52
  -2   2 -10    2.62    1.14
   2  -2  10    1.76    0.83
   2  -2  10    4.07    1.25
   2  -2  10    6.03    1.58
   2  -2  10    3.94    1.14
  -3   2 -10    0.04    0.91
  -3   2 -10    1.43    1.21
  -3   2 -10   -0.35    0.66
   3  -2  10    0.18    0.48
   3  -2  10    0.59    0.73
   3  -2  10    1.07    0.92
   3  -2  10   -0.62    0.52
  -4   2 -10    7.16    2.14
  -4   2 -10    8.98    1.54
  -4   2 -10   10.24    2.17
  -4   2 -10    5.84    1.75
   4  -2  10    7.74    1.52
   4  -2  10    5.89    1.21
   4  -2  10    6.15    1.98
  -5   2 -10    0.35    0.89
  -5   2 -10   -1.01    0.69
  -5   2 -10   -0.19    1.15
   5  -2  10   -0.40    1.46
   8   1 -10    4.15    1.71
   8   1 -10    4.61    1.55
   8   1 -10    2.69    1.47
  -8  -1  10    3.24    1.32
  -8  -1  10    3.24    1.57
  -8  -1  10    1.35    0.84
   7   1 -10    1.26    1.32
   7   1 -10    3.07    1.23
   7   1 -10    1.07    1.17
  -7  -1  10    2.49    1.85
  -7  -1  10    2.36    1.18
  -7  -1  10    1.50    0.77
  -7  -1  10   -0.56    0.97
   6   1 -10    4.25    1.34
   6   1 -10    1.93    1.39
   6   1 -10    3.80    1.40
   6   1 -10    4.77    1.34
  -6  -1  10    3.64    1.07
  -6  -1  10    3.68    1.23
  -6  -1  10    4.82    1.29
  -6  -1  10    2.35    1.45
   5   1 -10    1.99    1.04
   5   1 -10    2.20    1.28
   5   1 -10    0.86    1.01
  -5  -1  10   -0.75    0.61
  -5  -1  10   -0.85    0.56
  -5  -1  10    0.13    0.75
   4   1 -10   11.14    2.05
   4   1 -10   11.54    2.59
   4   1 -10   12.42    2.10
  -4  -1  10   14.08    2.24
  -4  -1  10   11.68    1.85
  -4  -1  10   10.78    1.63
   3   1 -10   16.18    2.41
   3   1 -10   22.25    2.83
  -3  -1  10   19.63    2.49
  -3  -1  10   15.47    1.51
  -3  -1  10   19.12    1.89
   2   1 -10   46.13    3.23
  -2  -1  10   49.47    2.29
  -2  -1  10   46.87    2.51
  -2  -1  10   44.87    2.84
   1   1 -10   27.05    2.62
   1   1 -10   26.45    1.98
   1   1 -10   30.21    2.64
  -1  -1  10   24.81    2.30
  -1  -1  10   31.28    2.29
  -1  -1  10   24.94    2.06
  -1  -1  10   27.67    1.46
  -1  -1  10   27.57    2.25
   0   1 -10   10.09    1.88
   0   1 -10   11.06    2.18
   0  -1  10   11.52    1.93
   0  -1  10   11.42    1.78
   0  -1  10    9.74    1.32
   0  -1  10    8.54    1.78
  -1   1 -10    0.46    0.91
  -1   1 -10    0.16    0.86
  -1   1 -10    2.13    1.08
   1  -1  10    0.99    0.81
   1  -1  10    0.21    0.71
   1  -1  10    0.74    0.96
   1  -1  10    0.23    0.53
  -2   1 -10    5.91    1.81
  -2   1 -10    5.18    1.44
  -2   1 -10    7.14    2.11
   2  -1  10    5.90    1.75
   2  -1  10    6.88    1.42
   2  -1  10    6.52    1.48
   2  -1  10    5.44    1.12
  -3   1 -10   -0.96    1.08
  -3   1 -10    2.00    1.04
  -3   1 -10    0.80    0.95
   3  -1  10   -0.08    0.52
   3  -1  10   -0.29    0.59
   3  -1  10    0.04    0.76
   3  -1  10    1.07    1.20
   3  -1  10    1.06    0.94
  -4   1 -10    4.54    1.66
  -4   1 -10    5.70    1.61
  -4   1 -10    6.22    2.01
   4  -1  10    1.64    1.29
   4  -1  10    2.49    1.01
  -5   1 -10   -0.35    0.83
  -5   1 -10    3.33    1.33
  -5   1 -10    0.99    1.51
   5  -1  10    0.44    1.32
   8   0 -10    2.75    1.47
   8   0 -10    4.78    2.02
  -8   0  10    0.57    1.04
  -8   0  10    2.03    1.23
  -8   0  10    0.05    0.66
   7   0 -10    3.06    1.29
   7   0 -10    2.60    1.12
   7   0 -10    1.56    1.36
  -7   0  10    2.11    0.86
  -7   0  10    3.95    1.26
  -7   0  10    4.19    1.50
   6   0 -10    0.27    0.98
   6   0 -10    1.08    1.21
   6   0 -10   -0.55    0.79
  -6   0  10   -0.75    0.62
  -6   0  10    1.35    0.94
  -6   0  10   -0.97    0.72
   5   0 -10    6.82    1.86
   5   0 -10    9.48    2.03
   5   0 -10    6.38    1.60
  -5   0  10   11.30    1.80
  -5   0  10    9.00    1.62
  -5   0  10    5.99    1.51
   4   0 -10   13.88    2.18
   4   0 -10   10.08    0.96
   4   0 -10   13.55    2.36
  -4   0  10   11.08    1.67
  -4   0  10   11.06    1.75
  -4   0  10    9.15    1.80
   3   0 -10    7.95    1.79
   3   0 -10    5.38    1.57
   3   0 -10    3.53    0.89
  -3   0  10    3.93    0.95
  -3   0  10    6.17    1.20
  -3   0  10    6.77    1.37
  -3   0  10    7.95    1.59
   2   0 -10    2.73    1.40
   2   0 -10    1.79    0.81
   2   0 -10    1.63    1.07
  -2   0  10    1.93    1.22
  -2   0  10    3.03    1.01
  -2   0  10    1.90    0.69
  -2   0  10    4.01    1.13
   1   0 -10   32.19    2.62
   1   0 -10   31.76    2.68
   1   0 -10   35.71    3.06
  -1   0  10   34.75    1.83
  -1   0  10   35.29    2.49
  -1   0  10   34.56    2.96
  -1   0  10   29.28    2.43
   0   0 -10   10.39    1.88
   0   0 -10    7.73    1.82
   0   0 -10   12.19    1.83
   0   0  10    6.64    1.46
   0   0  10    6.65    1.51
   0   0  10    9.25    1.07
   0   0  10    9.15    1.76
  -1   0 -10   35.67    2.80
  -1   0 -10   42.31    3.15
  -1   0 -10   42.34    3.39
   1   0  10   34.80    1.64
   1   0  10   40.26    3.15
   1   0  10   42.68    2.82
   1   0  10   34.47    2.49
  -2   0 -10    5.21    1.58
  -2   0 -10    5.91    1.47
  -2   0 -10    4.41    1.52
   2   0  10    6.33    1.53
   2   0  10    3.33    0.69
   2   0  10    3.84    1.02
   2   0  10    5.27    1.81
   2   0  10    6.48    1.45
  -3   0 -10   -0.96    0.76
  -3   0 -10    1.99    1.11
  -3   0 -10    0.17    1.16
   3   0  10    0.20    0.53
   3   0  10   -2.51    1.16
   3   0  10    0.12    0.60
  -4   0 -10    1.30    1.42
  -4   0 -10    0.52    0.91
   4   0  10   -0.46    0.87
   4   0  10    1.85    0.63
   4   0  10   -1.06    1.13
  -5   0 -10   -0.48    1.46
  -5   0 -10   -0.37    0.92
   5   0  10    1.84    1.35
   8  -1 -10    3.45    1.56
   8  -1 -10    3.61    1.57
  -8   1  10    3.05    1.33
  -8   1  10    4.33    1.53
   7  -1 -10    0.96    1.24
   7  -1 -10    0.26    1.16
   7  -1 -10    0.30    1.11
  -7   1  10    0.11    0.78
  -7   1  10    0.71    1.03
   6  -1 -10    0.52    0.80
   6  -1 -10    1.41    1.18
  -6   1  10    2.36    0.83
  -6   1  10    2.20    1.06
  -6   1  10    1.72    1.23
   5  -1 -10    0.78    1.02
   5  -1 -10    0.44    0.53
   5  -1 -10   -0.66    0.87
   5  -1 -10    0.35    0.79
  -5   1  10    0.66    0.71
  -5   1  10    1.13    0.86
  -5   1  10    0.52    0.73
   4  -1 -10    0.81    0.67
   4  -1 -10    0.91    1.01
  -4   1  10    1.20    0.84
  -4   1  10    2.91    1.24
   3  -1 -10   15.69    2.39
   3  -1 -10   14.85    2.49
  -3   1  10   14.83    2.03
  -3   1  10   14.20    1.78
  -3   1  10   17.61    1.51
   2  -1 -10  126.25    4.64
   2  -1 -10  118.92    5.24
   2  -1 -10  124.60    5.63
  -2   1  10  131.49    4.99
  -2   1  10  131.97    5.14
  -2   1  10  139.46    5.85
  -2   1  10  121.24    3.44
   1  -1 -10   59.79    3.46
   1  -1 -10   65.80    4.22
   1  -1 -10   66.80    3.83
  -1   1  10   69.58    3.65
  -1   1  10   69.28    2.22
  -1   1  10   65.44    3.42
  -1   1  10   61.84    2.17
  -1   1  10   68.87    3.76
   0  -1 -10    2.91    1.35
   0  -1 -10    2.75    1.16
   0  -1 -10    4.53    1.50
   0   1  10    3.88    1.19
   0   1  10    3.44    1.07
   0   1  10    4.84    1.41
  -1  -1 -10   -0.54    0.86
  -1  -1 -10    1.91    1.23
  -1  -1 -10    0.13    0.54
   1   1  10    0.68    0.99
   1   1  10    0.83    0.77
   1   1  10    1.45    0.73
  -2  -1 -10    7.74    1.95
  -2  -1 -10    6.90    1.96
  -2  -1 -10    4.95    1.43
   2   1  10    8.07    2.02
   2   1  10    5.37    1.19
  -3  -1 -10    1.84    1.12
  -3  -1 -10    1.57    1.32
  -3  -1 -10    1.05    0.90
   3   1  10   -1.36    1.12
   3   1  10   -0.25    0.79
  -4  -1 -10    4.41    1.56
  -4  -1 -10    2.09    1.70
   4   1  10    1.50    0.86
   4   1  10    2.63    1.66
   8  -2 -10    1.60    1.40
   8  -2 -10    3.18    1.61
   8  -2 -10   -0.01    1.38
  -8   2  10    2.28    1.20
  -8   2  10    1.80    1.22
   7  -2 -10    3.51    1.46
   7  -2 -10    1.33    0.77
   7  -2 -10    1.68    1.06
   7  -2 -10    1.58    1.18
  -7   2  10    1.13    0.83
  -7   2  10    2.29    1.18
   6  -2 -10    5.34    1.61
   6  -2 -10    4.44    1.73
   6  -2 -10    1.31    0.85
   6  -2 -10    1.72    1.15
  -6   2  10    2.30    1.07
  -6   2  10    2.32    1.34
   5  -2 -10    2.50    1.14
   5  -2 -10   -0.94    0.78
   5  -2 -10    0.16    0.77
   5  -2 -10   -0.43    0.74
  -5   2  10    0.22    0.67
  -5   2  10   -0.36    0.89
   4  -2 -10    0.17    0.78
   4  -2 -10   -0.09    1.02
   4  -2 -10   -0.08    0.63
  -4   2  10    0.12    0.67
  -4   2  10    1.08    0.83
   3  -2 -10    0.67    0.76
   3  -2 -10    0.49    0.64
  -3   2  10    0.88    0.95
  -3   2  10    0.00    0.42
  -3   2  10   -0.08    0.67
   2  -2 -10   81.48    4.65
   2  -2 -10   70.16    4.71
  -2   2  10   68.96    2.41
  -2   2  10   70.82    2.24
  -2   2  10   73.69    3.88
  -2   2  10   64.04    3.49
  -2   2  10   64.21    2.26
   1  -2 -10   73.36    4.04
   1  -2 -10   73.13    4.52
   1  -2 -10   68.59    3.77
  -1   2  10   65.67    1.45
  -1   2  10   71.70    3.62
  -1   2  10   69.48    4.04
  -1   2  10   79.02    4.00
   0  -2 -10    4.62    1.33
   0  -2 -10    5.14    1.33
   0  -2 -10    2.29    1.39
   0   2  10    4.17    1.35
   0   2  10    4.04    1.18
   0   2  10    4.15    1.28
  -1  -2 -10   -0.04    0.95
  -1  -2 -10   -0.90    0.65
  -1  -2 -10    1.04    0.88
   1   2  10    0.61    0.72
   1   2  10    0.64    0.76
   1   2  10    1.65    1.17
  -2  -2 -10    8.11    2.08
  -2  -2 -10    7.63    1.47
  -2  -2 -10    5.82    1.43
   2   2  10    6.63    1.36
   2   2  10    4.40    1.63
  -3  -2 -10    1.18    1.03
  -3  -2 -10    1.33    1.10
  -3  -2 -10   -1.23    0.94
   3   2  10   -1.35    1.14
   3   2  10    0.49    0.87
  -4  -2 -10    0.42    1.41
  -4  -2 -10   -1.82    0.88
   4   2  10   -0.36    1.08
   4   2  10    1.00    1.58
   8  -3 -10    1.57    1.57
   8  -3 -10    2.35    1.53
  -8   3  10    0.52    1.30
  -8   3  10    0.46    1.16
   7  -3 -10   -0.90    0.94
   7  -3 -10   -0.84    1.16
   7  -3 -10    0.01    0.87
  -7   3  10   -0.06    0.89
  -7   3  10    0.20    1.14
   6  -3 -10    0.79    0.99
   6  -3 -10   -0.41    1.13
   6  -3 -10    0.52    1.11
   6  -3 -10    0.26    0.88
  -6   3  10    0.38    1.06
  -6   3  10    0.13    0.74
   5  -3 -10    0.61    1.04
   5  -3 -10   -0.76    0.90
   5  -3 -10   -0.59    0.83
  -5   3  10    0.67    0.80
  -5   3  10    0.16    0.66
   4  -3 -10   -0.26    0.94
   4  -3 -10    0.29    0.97
  -4   3  10    1.95    0.72
  -4   3  10    0.33    0.93
   3  -3 -10    5.55    1.55
   3  -3 -10    5.76    1.88
  -3   3  10    9.58    1.77
  -3   3  10    6.69    1.01
   2  -3 -10   40.79    3.14
   2  -3 -10   47.83    3.63
   2  -3 -10   35.61    2.87
  -2   3  10   45.28    3.24
  -2   3  10   41.39    2.94
   1  -3 -10   13.43    2.35
   1  -3 -10   11.43    2.26
  -1   3  10    8.70    1.66
  -1   3  10   12.37    2.11
   0  -3 -10    9.13    2.13
   0  -3 -10    8.11    1.77
   0  -3 -10    7.29    1.77
   0   3  10    8.90    1.60
   0   3  10    4.88    1.67
   0   3  10   10.48    1.99
  -1  -3 -10    1.18    1.00
  -1  -3 -10   -2.35    0.82
  -1  -3 -10   -0.40    0.86
   1   3  10   -0.19    0.72
   1   3  10   -0.30    0.76
  -2  -3 -10    1.12    1.21
  -2  -3 -10    0.71    0.76
  -2  -3 -10   -0.59    0.98
   2   3  10    1.63    0.88
   2   3  10    0.61    1.09
   2   3  10    0.68    1.70
  -3  -3 -10    0.07    0.79
  -3  -3 -10    0.16    0.74
   3   3  10    3.66    1.63
   3   3  10    0.33    0.88
   7  -4 -10    2.75    1.21
   7  -4 -10    3.06    1.60
   7  -4 -10    2.77    1.63
  -7   4  10    2.95    1.35
  -7   4  10    2.31    1.37
   6  -4 -10    1.61    0.99
   6  -4 -10    1.74    1.27
   6  -4 -10    2.86    1.33
  -6   4  10    3.33    1.12
  -6   4  10    1.32    1.39
   5  -4 -10   -0.07    0.80
   5  -4 -10   -1.77    0.80
   5  -4 -10    2.16    1.26
  -5   4  10   -1.66    0.64
  -5   4  10   -1.43    1.11
  -5   4  10   -0.45    0.83
   4  -4 -10    1.01    0.82
   4  -4 -10    1.29    1.15
  -4   4  10    2.14    1.32
  -4   4  10   -0.04    0.74
  -4   4  10    0.25    0.65
   3  -4 -10   -0.09    0.65
  -3   4  10    0.22    0.84
   2  -4 -10   44.40    3.54
   2  -4 -10   42.89    3.26
   2  -4 -10   38.05    3.64
  -2   4  10   39.90    2.12
  -2   4  10   39.56    3.19
  -2   4  10   46.88    3.14
   1  -4 -10   12.73    2.15
   1  -4 -10   14.54    2.37
  -1   4  10   14.63    2.33
  -1   4  10   14.29    2.12
   0  -4 -10    2.06    1.05
   0  -4 -10    4.81    1.69
   0  -4 -10   -0.34    1.02
   0   4  10    2.12    1.06
   0   4  10    4.58    1.44
  -1  -4 -10   11.44    1.98
  -1  -4 -10   15.25    2.80
  -1  -4 -10   15.32    2.34
   1   4  10   16.04    2.39
   1   4  10   12.38    1.85
   1   4  10   14.20    2.80
  -2  -4 -10    1.38    1.14
  -2  -4 -10    0.40    1.16
   2   4  10    0.86    0.92
   2   4  10    0.67    1.10
  -3  -4 -10    3.07    1.82
  -3  -4 -10   -0.22    0.98
   3   4  10   -0.12    1.15
   3   4  10    1.00    1.18
   7  -5 -10    1.61    1.35
   7  -5 -10   -1.37    1.24
   7  -5 -10   -1.46    1.03
  -7   5  10    1.65    1.22
  -7   5  10    1.55    1.42
  -7   5  10   -1.19    1.18
   6  -5 -10    3.03    1.61
   6  -5 -10    2.34    1.53
   6  -5 -10   -0.14    1.09
  -6   5  10    0.24    0.94
  -6   5  10    0.66    1.11
  -6   5  10    0.48    1.41
   5  -5 -10    0.83    1.39
   5  -5 -10   -0.83    1.08
   5  -5 -10   -0.33    1.10
  -5   5  10    1.73    1.12
  -5   5  10   -0.27    0.85
  -5   5  10    1.18    1.17
   4  -5 -10    0.80    1.13
   4  -5 -10   -0.43    0.84
  -4   5  10   -0.13    0.56
  -4   5  10    0.64    0.80
  -4   5  10   -0.30    1.11
   3  -5 -10    2.72    1.48
   3  -5 -10    3.60    1.40
  -3   5  10    2.34    1.28
  -3   5  10    2.88    1.30
  -3   5  10    0.94    1.02
   2  -5 -10    3.56    1.70
   2  -5 -10   -0.42    0.98
   2  -5 -10    2.09    1.55
  -2   5  10    3.62    1.29
  -2   5  10    1.54    0.94
  -2   5  10    3.33    1.31
   1  -5 -10    1.30    1.42
   1  -5 -10    1.74    1.34
   1  -5 -10   -0.83    0.65
  -1   5  10    0.57    0.55
  -1   5  10   -1.18    0.78
  -1   5  10    1.04    1.16
   0  -5 -10    3.67    1.61
   0  -5 -10    2.15    1.11
   0   5  10    1.95    1.30
  -1  -5 -10    1.24    1.34
  -1  -5 -10   -0.65    0.84
   1   5  10   -1.22    0.94
  -2  -5 -10   -2.66    1.02
  -2  -5 -10    0.98    0.92
   2   5  10   -0.61    0.92
   2   5  10   -0.41    1.16
   6  -6 -10   -0.24    1.38
   6  -6 -10    1.49    1.51
   6  -6 -10    3.01    1.62
  -6   6  10    2.71    1.61
  -6   6  10    0.05    1.09
  -6   6  10   -0.28    1.38
   5  -6 -10   -0.16    1.07
   5  -6 -10    0.28    1.12
   5  -6 -10    1.00    1.09
  -5   6  10   -2.05    1.34
  -5   6  10    1.01    1.16
   4  -6 -10   -1.01    0.93
   4  -6 -10    0.08    1.05
  -4   6  10    0.92    1.21
  -4   6  10    0.16    0.99
  -4   6  10    1.19    1.14
  -4   6  10    0.80    0.64
   3  -6 -10    4.19    1.45
   3  -6 -10    2.86    1.46
  -3   6  10    3.53    1.26
  -3   6  10    2.93    1.25
  -3   6  10    1.77    1.51
   2  -6 -10    5.25    1.41
   2  -6 -10    5.35    1.73
  -2   6  10    7.17    1.69
   1  -6 -10    1.34    1.45
   1  -6 -10    1.05    1.02
  -1   6  10   -0.09    1.01
  -1   6  10    0.82    0.81
   0  -6 -10    2.20    1.19
   0  -6 -10    3.96    1.80
   0   6  10    2.46    1.24
   3  -7 -10   -0.37    1.21
   3  -7 -10    1.11    1.21
  -3   7  10   -1.43    1.14
  -3   7  10   -0.49    1.18
   3   9 -11    0.96    1.49
   3   9 -11   -0.13    1.37
  -3  -9  11   -0.38    0.81
  -3  -9  11    0.62    1.22
   2   9 -11   -0.78    1.24
   2   9 -11   -1.29    0.95
  -2  -9  11    0.17    1.03
  -2  -9  11    1.25    1.05
   1   9 -11    3.53    1.38
   1   9 -11    3.05    1.72
   1   9 -11    4.86    1.74
  -1  -9  11    5.46    1.69
  -1  -9  11    3.33    1.35
   0   9 -11    1.55    1.45
   0   9 -11   -1.51    0.98
   0   9 -11    0.95    1.70
   0  -9  11    0.86    1.05
   0  -9  11    1.06    1.23
  -1   9 -11    1.46    1.36
  -1   9 -11    1.17    0.88
  -1   9 -11    2.13    1.67
   1  -9  11    1.57    1.15
   1  -9  11    2.82    1.42
   1  -9  11    2.99    1.29
  -2   9 -11    0.54    1.53
  -2   9 -11    0.61    1.20
   2  -9  11    0.38    1.02
   2  -9  11    2.20    1.49
   2  -9  11    3.37    1.58
   4   8 -11    5.87    1.94
   4   8 -11    5.13    1.85
  -4  -8  11    1.63    1.12
  -4  -8  11    5.45    1.50
   3   8 -11    1.35    1.58
   3   8 -11    1.76    1.18
   3   8 -11    3.54    1.56
  -3  -8  11   -0.33    0.71
  -3  -8  11    2.40    1.27
  -3  -8  11    0.74    0.85
   2   8 -11   -0.30    1.33
   2   8 -11    0.60    1.16
   2   8 -11   -0.91    0.78
  -2  -8  11    0.41    1.07
  -2  -8  11    0.50    0.94
   1   8 -11    9.73    2.00
   1   8 -11    8.71    2.09
   1   8 -11    7.49    1.08
   1   8 -11   10.50    2.23
  -1  -8  11    7.17    1.77
  -1  -8  11    8.93    1.96
  -1  -8  11   10.22    1.84
   0   8 -11   -0.01    0.71
   0   8 -11    1.49    1.09
   0  -8  11   -0.04    0.91
   0  -8  11    2.38    1.13
   0  -8  11    0.45    0.73
  -1   8 -11   -1.71    0.76
  -1   8 -11    0.58    1.43
   1  -8  11    0.96    0.79
   1  -8  11    0.57    0.95
   1  -8  11   -0.78    0.89
  -2   8 -11    7.75    2.39
  -2   8 -11    5.80    1.42
  -2   8 -11    4.82    1.61
   2  -8  11    7.96    2.12
   2  -8  11    4.76    1.56
   2  -8  11    6.34    1.88
  -3   8 -11    0.22    1.00
  -3   8 -11   -1.67    1.01
  -3   8 -11    0.33    1.49
   3  -8  11    4.21    1.56
   3  -8  11   -2.21    0.77
   3  -8  11    2.02    1.09
   5   7 -11    2.72    1.46
  -5  -7  11    1.40    0.94
  -5  -7  11    0.12    0.84
   4   7 -11    2.63    1.43
   4   7 -11    7.37    2.18
  -4  -7  11    8.45    1.81
  -4  -7  11    7.34    1.62
   3   7 -11    6.07    1.53
   3   7 -11    9.75    2.21
   3   7 -11    6.12    2.33
  -3  -7  11    4.92    1.32
  -3  -7  11    8.16    1.80
  -3  -7  11    4.92    1.01
  -3  -7  11    5.83    0.96
  -3  -7  11    8.95    1.89
   2   7 -11    5.73    1.14
   2   7 -11   10.37    2.23
   2   7 -11    6.34    1.47
   2   7 -11   11.09    2.07
  -2  -7  11   10.28    2.15
  -2  -7  11    2.65    1.64
  -2  -7  11    8.42    1.40
  -2  -7  11    4.68    1.22
  -2  -7  11   11.31    2.06
   1   7 -11    1.77    1.26
   1   7 -11    1.81    1.13
   1   7 -11    2.81    1.04
   1   7 -11    1.12    1.24
  -1  -7  11    3.64    1.16
  -1  -7  11    2.40    1.29
  -1  -7  11    6.44    1.54
  -1  -7  11    2.89    1.13
   0   7 -11   19.42    2.60
   0   7 -11   17.04    3.13
   0  -7  11   15.82    2.49
   0  -7  11   16.55    2.47
   0  -7  11   18.81    3.14
  -1   7 -11    0.32    1.20
  -1   7 -11    6.63    1.52
  -1   7 -11    3.70    1.11
   1  -7  11    4.90    1.53
   1  -7  11    5.37    1.64
   1  -7  11    4.36    1.47
  -2   7 -11    8.42    2.05
  -2   7 -11    9.24    1.67
  -2   7 -11    8.95    1.74
   2  -7  11   10.83    2.00
   2  -7  11    6.15    1.88
   2  -7  11    6.12    1.83
  -3   7 -11   -1.25    1.23
  -3   7 -11   -1.19    1.14
  -3   7 -11    1.21    0.85
   3  -7  11    0.84    0.86
   3  -7  11    1.07    1.16
   3  -7  11    1.08    1.32
  -4   7 -11   -0.56    0.77
  -4   7 -11    0.86    1.49
   4  -7  11    1.81    1.32
   4  -7  11   -0.52    0.97
   4  -7  11   -0.90    1.23
   6   6 -11    3.69    1.82
  -6  -6  11    1.47    1.04
  -6  -6  11    0.14    0.79
   5   6 -11    2.42    1.33
   5   6 -11   -0.68    1.12
  -5  -6  11    2.68    1.17
  -5  -6  11    1.67    1.20
   4   6 -11    0.11    0.99
   4   6 -11    1.32    1.40
  -4  -6  11    1.07    1.12
  -4  -6  11   -0.60    1.30
  -4  -6  11    1.12    0.89
   3   6 -11   -0.03    0.83
   3   6 -11    0.42    0.94
   3   6 -11    0.38    0.88
   3   6 -11   -1.30    0.94
  -3  -6  11    0.74    0.75
  -3  -6  11   -2.26    1.05
  -3  -6  11   -0.29    0.85
   2   6 -11    0.34    0.82
   2   6 -11    1.30    1.22
   2   6 -11    0.89    1.18
  -2  -6  11    0.69    0.72
  -2  -6  11    0.04    0.81
   1   6 -11    0.84    0.86
   1   6 -11    2.14    1.32
  -1  -6  11    2.31    1.04
  -1  -6  11    3.88    1.27
  -1  -6  11    3.87    1.30
   0   6 -11   -0.14    0.89
   0   6 -11   -1.36    0.66
   0   6 -11   -1.35    0.53
   0  -6  11    0.39    0.86
   0  -6  11    1.14    0.91
   0  -6  11    0.27    0.71
  -1   6 -11    5.17    1.30
  -1   6 -11    4.75    1.49
  -1   6 -11    3.95    1.55
   1  -6  11    2.83    1.20
   1  -6  11    6.36    1.56
   1  -6  11    3.52    1.34
  -2   6 -11    5.28    1.74
  -2   6 -11    4.31    1.49
  -2   6 -11    5.73    1.26
   2  -6  11    6.47    1.67
   2  -6  11    5.07    1.57
   2  -6  11    2.77    1.18
  -3   6 -11    0.66    1.10
  -3   6 -11   -2.53    0.89
  -3   6 -11    1.94    0.87
   3  -6  11   -1.39    0.61
   3  -6  11    0.47    1.29
   3  -6  11   -1.08    0.93
  -4   6 -11   -1.44    0.76
  -4   6 -11    0.20    1.20
  -4   6 -11    0.35    1.31
   4  -6  11    1.07    0.73
   4  -6  11    0.15    1.24
   4  -6  11    0.12    0.98
   7   5 -11   -0.62    1.26
   7   5 -11    3.96    1.64
  -7  -5  11    2.99    1.30
  -7  -5  11    1.56    1.08
  -7  -5  11    1.12    1.11
   6   5 -11    7.86    2.12
   6   5 -11    4.43    1.29
  -6  -5  11    6.30    1.66
  -6  -5  11    6.04    1.65
  -6  -5  11    7.23    1.59
   5   5 -11   -0.62    1.45
   5   5 -11   -0.04    0.65
   5   5 -11   -0.44    1.47
  -5  -5  11   -0.52    1.57
  -5  -5  11    0.99    0.74
  -5  -5  11   -0.17    0.78
   4   5 -11    9.10    2.82
   4   5 -11    6.86    1.72
   4   5 -11    7.45    1.65
  -4  -5  11    6.43    1.52
   3   5 -11   15.40    0.89
   3   5 -11   23.70    2.37
   3   5 -11   18.72    2.36
   3   5 -11   21.56    3.44
  -3  -5  11   18.24    2.48
  -3  -5  11   15.77    2.34
  -3  -5  11   23.58    3.06
   2   5 -11    6.46    1.49
   2   5 -11    8.37    1.59
   2   5 -11    8.72    1.83
  -2  -5  11    7.84    1.74
  -2  -5  11    7.61    1.29
  -2  -5  11    6.59    1.43
   1   5 -11   34.18    2.34
   1   5 -11   33.25    2.59
  -1  -5  11   33.48    2.35
  -1  -5  11   36.19    2.92
  -1  -5  11   34.38    2.70
   0   5 -11   15.65    2.48
   0   5 -11   11.13    1.10
   0   5 -11   15.39    2.30
   0  -5  11   11.21    1.94
   0  -5  11   18.39    2.69
   0  -5  11   11.45    1.93
  -1   5 -11    0.55    1.16
  -1   5 -11    1.78    0.94
  -1   5 -11    3.01    1.23
  -1   5 -11    4.23    1.11
   1  -5  11    3.05    1.12
   1  -5  11    4.14    1.26
   1  -5  11    4.16    1.28
  -2   5 -11    0.71    0.69
  -2   5 -11   -2.34    0.83
  -2   5 -11   -0.61    0.93
  -2   5 -11   -1.26    0.63
   2  -5  11    0.18    0.98
   2  -5  11    0.16    0.80
   2  -5  11    0.48    1.04
  -3   5 -11    2.44    1.48
  -3   5 -11    0.65    1.34
  -3   5 -11   -0.59    0.66
   3  -5  11   -0.05    0.78
   3  -5  11   -0.31    0.76
   3  -5  11    0.32    0.95
   3  -5  11    1.35    0.73
  -4   5 -11    4.07    1.77
  -4   5 -11    2.23    1.18
  -4   5 -11    1.33    0.81
   4  -5  11    0.03    1.42
   4  -5  11    2.20    0.86
   4  -5  11    1.41    1.26
  -5   5 -11    1.32    1.64
  -5   5 -11    4.63    2.04
  -5   5 -11    1.59    0.96
  -5   5 -11    0.37    1.19
   5  -5  11    2.64    1.74
   5  -5  11    5.66    1.74
   5  -5  11    1.11    0.93
   7   4 -11    2.89    1.36
  -7  -4  11    3.43    1.40
  -7  -4  11    0.57    0.87
  -7  -4  11    3.62    1.37
   6   4 -11    3.52    1.55
   6   4 -11    3.29    1.30
  -6  -4  11    1.81    1.21
  -6  -4  11    2.31    1.45
  -6  -4  11    3.02    1.14
   5   4 -11    2.80    1.02
   5   4 -11    2.31    1.34
   5   4 -11    3.58    1.00
   5   4 -11    3.12    1.21
  -5  -4  11    2.40    1.78
  -5  -4  11    3.95    1.43
  -5  -4  11    3.29    1.03
   4   4 -11   -0.33    0.84
   4   4 -11    0.71    1.00
   4   4 -11   -0.06    0.59
   4   4 -11    0.85    0.87
  -4  -4  11   -0.58    1.19
  -4  -4  11   -0.64    0.89
  -4  -4  11    0.78    1.00
   3   4 -11    2.73    1.52
   3   4 -11   -0.21    0.69
   3   4 -11   -0.12    0.82
  -3  -4  11    0.85    0.90
  -3  -4  11    0.00    0.70
   2   4 -11    2.60    1.17
   2   4 -11    2.33    1.14
   2   4 -11    3.00    0.80
  -2  -4  11    3.97    0.93
  -2  -4  11    3.96    1.20
  -2  -4  11    3.82    1.14
   1   4 -11   -0.43    0.60
   1   4 -11   -0.22    0.83
  -1  -4  11    0.31    0.83
  -1  -4  11    0.84    0.92
  -1  -4  11    0.53    0.67
  -1  -4  11    0.49    0.93
   0   4 -11    3.66    0.90
   0   4 -11    2.61    1.10
   0   4 -11    2.56    1.15
   0   4 -11    2.08    0.97
   0  -4  11    3.31    1.28
   0  -4  11    2.29    0.98
   0  -4  11    0.43    0.92
  -1   4 -11    3.66    1.24
  -1   4 -11    0.72    1.04
  -1   4 -11    0.32    1.22
   1  -4  11    4.57    1.49
   1  -4  11    2.13    1.08
   1  -4  11    4.00    1.25
  -2   4 -11    5.07    1.63
  -2   4 -11    4.46    1.52
  -2   4 -11    4.26    0.84
   2  -4  11    5.22    1.20
   2  -4  11    9.15    2.02
   2  -4  11    6.25    1.40
   2  -4  11    4.66    1.17
  -3   4 -11    7.62    2.06
  -3   4 -11    4.34    0.74
   3  -4  11    5.40    1.12
   3  -4  11    7.76    1.87
   3  -4  11    5.68    1.38
  -4   4 -11    2.14    1.32
  -4   4 -11    2.74    1.58
   4  -4  11    2.60    1.57
   4  -4  11    2.38    0.91
  -5   4 -11    1.79    1.58
  -5   4 -11    3.90    1.22
  -5   4 -11    2.62    1.83
   5  -4  11    2.29    1.71
   5  -4  11    1.21    0.96
   7   3 -11    4.52    1.85
   7   3 -11    1.14    1.73
   7   3 -11    2.86    1.38
  -7  -3  11    3.33    1.19
  -7  -3  11    4.83    1.50
  -7  -3  11    2.05    1.04
   6   3 -11   -0.77    0.93
   6   3 -11   -1.23    1.09
   6   3 -11    1.79    1.15
  -6  -3  11   -0.31    0.55
  -6  -3  11    3.20    1.07
  -6  -3  11   -1.50    1.44
   5   3 -11   -0.57    1.09
   5   3 -11    1.16    0.97
   5   3 -11    0.32    1.12
   5   3 -11    1.72    0.88
  -5  -3  11   -1.13    1.36
  -5  -3  11    0.56    0.79
  -5  -3  11    2.58    1.19
   4   3 -11   -0.45    0.89
   4   3 -11    0.81    1.08
   4   3 -11    0.65    1.41
  -4  -3  11    0.56    0.82
  -4  -3  11   -0.89    0.67
   3   3 -11    2.47    1.06
   3   3 -11    3.89    1.34
  -3  -3  11    0.91    1.01
  -3  -3  11    2.60    0.54
  -3  -3  11    2.10    0.86
   2   3 -11    2.06    1.03
   2   3 -11    1.08    1.07
   2   3 -11    3.75    1.29
  -2  -3  11    2.90    0.86
  -2  -3  11    2.98    1.36
  -2  -3  11    4.22    1.24
  -2  -3  11    2.69    0.92
   1   3 -11   23.23    2.35
   1   3 -11   27.00    3.19
  -1  -3  11   24.89    2.28
  -1  -3  11   25.82    2.10
  -1  -3  11   21.31    1.77
   0   3 -11    0.11    0.97
   0   3 -11    0.85    1.02
   0   3 -11    3.22    1.32
   0  -3  11    0.50    0.73
   0  -3  11    1.64    0.76
   0  -3  11    1.10    0.72
  -1   3 -11    0.86    0.81
  -1   3 -11    1.83    1.32
   1  -3  11    0.00    0.50
   1  -3  11   -0.32    0.85
   1  -3  11   -0.11    0.92
  -2   3 -11    2.46    1.32
  -2   3 -11    2.97    1.27
   2  -3  11    2.71    1.33
   2  -3  11    1.42    1.11
   2  -3  11    1.89    0.85
  -3   3 -11    2.12    1.05
   3  -3  11    0.25    0.71
   3  -3  11    0.24    1.08
   3  -3  11    0.43    0.54
   3  -3  11   -0.01    0.74
  -4   3 -11    1.51    1.39
  -4   3 -11    1.64    1.24
   4  -3  11    0.68    0.79
   4  -3  11    2.04    1.43
   4  -3  11    2.39    1.44
  -5   3 -11    1.63    1.13
  -5   3 -11    7.10    2.39
  -5   3 -11    3.42    1.75
   5  -3  11    2.69    1.08
   5  -3  11    1.74    1.76
   5  -3  11    5.59    2.00
   8   2 -11    3.33    1.52
   8   2 -11    5.23    2.16
  -8  -2  11    4.01    1.31
  -8  -2  11    6.18    1.35
   7   2 -11   -0.66    1.12
   7   2 -11    1.40    1.08
   7   2 -11    1.75    1.17
  -7  -2  11   -0.89    0.82
  -7  -2  11    0.16    0.95
  -7  -2  11   -1.66    0.73
   6   2 -11    0.55    1.05
   6   2 -11    0.31    1.18
   6   2 -11   -1.01    1.16
   6   2 -11    2.00    1.08
  -6  -2  11    3.56    1.32
  -6  -2  11    0.80    1.00
  -6  -2  11    0.28    0.71
   5   2 -11    8.35    1.88
   5   2 -11   10.00    2.25
   5   2 -11    4.95    1.51
  -5  -2  11    8.14    1.82
  -5  -2  11    8.27    1.78
  -5  -2  11    6.93    1.58
   4   2 -11    3.50    1.37
   4   2 -11    1.20    1.01
   4   2 -11    3.88    1.71
  -4  -2  11    2.33    1.11
  -4  -2  11    3.09    1.15
   3   2 -11    4.38    1.57
   3   2 -11    2.65    1.27
  -3  -2  11    5.18    1.40
  -3  -2  11    5.22    1.45
   2   2 -11    4.56    1.37
   2   2 -11    4.02    1.34
   2   2 -11    2.11    1.32
  -2  -2  11    2.16    0.83
  -2  -2  11    5.34    1.31
  -2  -2  11    1.77    0.86
  -2  -2  11    1.49    1.00
   1   2 -11    2.14    1.16
   1   2 -11    5.04    1.47
  -1  -2  11    2.71    0.85
  -1  -2  11    3.21    1.07
  -1  -2  11    5.13    1.50
  -1  -2  11    3.96    1.16
   0   2 -11    0.63    1.03
   0   2 -11    0.14    1.81
   0  -2  11    1.36    0.98
   0  -2  11    1.29    0.77
   0  -2  11    1.92    0.86
  -1   2 -11   11.42    2.28
  -1   2 -11   11.23    2.28
   1  -2  11   13.56    1.99
   1  -2  11   15.35    2.34
   1  -2  11   14.10    2.27
  -2   2 -11    7.13    1.97
  -2   2 -11   10.14    2.17
   2  -2  11    6.07    1.61
   2  -2  11    5.48    1.35
   2  -2  11    6.14    1.86
  -3   2 -11    3.48    1.54
  -3   2 -11    2.12    1.37
   3  -2  11    3.78    1.63
   3  -2  11    3.79    0.81
   3  -2  11    2.13    0.86
   3  -2  11    2.73    1.09
  -4   2 -11    7.38    2.19
  -4   2 -11   11.09    2.27
   4  -2  11    8.09    2.09
   4  -2  11   13.10    2.33
   4  -2  11   11.71    1.90
  -5   2 -11    8.17    2.09
  -5   2 -11    8.11    2.65
   5  -2  11    3.45    2.12
   8   1 -11    1.40    1.80
   8   1 -11    0.16    1.25
   8   1 -11    2.53    1.31
  -8  -1  11    1.29    0.97
  -8  -1  11    1.07    1.00
  -8  -1  11    2.04    1.28
   7   1 -11    0.83    1.30
   7   1 -11   -0.17    0.94
   7   1 -11   -0.83    1.17
  -7  -1  11    0.50    0.80
  -7  -1  11   -0.53    0.80
  -7  -1  11   -0.29    0.77
   6   1 -11    0.71    1.03
   6   1 -11   -0.35    1.06
   6   1 -11    1.41    1.37
  -6  -1  11    0.16    0.88
  -6  -1  11    0.24    1.51
  -6  -1  11    0.34    0.78
   5   1 -11   -0.21    0.99
   5   1 -11    0.46    0.72
   5   1 -11    0.66    1.18
  -5  -1  11   -0.60    0.69
  -5  -1  11    0.81    0.87
   4   1 -11    0.56    0.89
  -4  -1  11   -0.57    0.71
  -4  -1  11    0.31    0.71
  -4  -1  11   -0.25    0.68
   3   1 -11    1.93    1.23
   3   1 -11    2.15    1.37
  -3  -1  11    2.87    0.97
  -3  -1  11    3.40    1.11
  -3  -1  11    1.89    1.22
   2   1 -11   10.02    2.03
   2   1 -11    8.48    1.85
  -2  -1  11    9.50    1.88
  -2  -1  11    6.96    1.21
  -2  -1  11    7.04    1.46
  -2  -1  11    8.60    1.46
   1   1 -11   15.90    2.51
   1   1 -11   12.41    2.09
  -1  -1  11   10.97    0.94
  -1  -1  11   12.11    1.54
  -1  -1  11    9.85    1.97
  -1  -1  11   13.61    2.02
  -1  -1  11   12.78    2.25
   0   1 -11   -2.07    0.80
   0   1 -11    0.33    0.79
   0  -1  11    0.62    0.69
   0  -1  11    0.10    0.75
   0  -1  11    0.17    0.65
   0  -1  11    0.08    0.72
  -1   1 -11    1.44    1.04
  -1   1 -11    1.98    1.16
   1  -1  11   -0.17    0.67
   1  -1  11    0.31    0.69
   1  -1  11    2.27    1.03
  -2   1 -11    6.86    2.05
  -2   1 -11    2.24    1.51
  -2   1 -11    7.14    2.03
   2  -1  11    5.21    1.69
   2  -1  11    4.35    1.12
   2  -1  11    5.88    1.35
   2  -1  11    4.40    1.44
  -3   1 -11    3.49    1.68
  -3   1 -11    4.26    1.46
  -3   1 -11    5.28    1.78
   3  -1  11    3.98    1.16
   3  -1  11    3.72    1.37
   3  -1  11    4.58    0.99
   3  -1  11    2.56    1.09
   3  -1  11    7.31    2.12
  -4   1 -11    6.31    1.62
  -4   1 -11    6.27    2.14
   4  -1  11    4.93    1.95
   4  -1  11    4.80    1.93
   8   0 -11    0.76    1.55
   8   0 -11    1.17    1.77
  -8   0  11    0.71    1.48
  -8   0  11    0.17    1.20
  -8   0  11    1.33    0.66
   7   0 -11    3.83    1.52
   7   0 -11    1.57    1.49
   7   0 -11    0.75    1.33
   7   0 -11   -0.36    1.17
  -7   0  11    0.27    1.01
  -7   0  11    2.44    1.27
  -7   0  11    0.86    0.86
   6   0 -11    0.36    0.91
   6   0 -11   -0.26    0.97
  -6   0  11   -0.15    0.68
  -6   0  11    0.14    0.75
   5   0 -11    1.78    1.55
   5   0 -11    2.11    1.32
   5   0 -11    4.95    1.47
  -5   0  11    2.96    1.18
  -5   0  11    4.39    1.29
  -5   0  11    3.80    1.51
   4   0 -11    3.42    1.31
   4   0 -11   -0.58    0.81
   4   0 -11    1.77    0.67
  -4   0  11    1.90    1.03
  -4   0  11    4.02    1.35
  -4   0  11    0.51    0.69
   3   0 -11   15.48    2.41
   3   0 -11   16.44    2.68
   3   0 -11   13.07    1.68
  -3   0  11   16.09    2.39
  -3   0  11   16.81    1.62
  -3   0  11   16.39    2.25
  -3   0  11   16.79    1.68
   2   0 -11   55.39    3.68
   2   0 -11   54.73    3.88
   2   0 -11   45.71    2.78
  -2   0  11   51.62    2.97
  -2   0  11   54.32    3.92
  -2   0  11   53.22    2.50
  -2   0  11   48.37    2.54
  -2   0  11   51.42    3.12
   1   0 -11   17.08    2.82
   1   0 -11   15.50    2.49
  -1   0  11   19.44    2.44
  -1   0  11   17.81    2.46
  -1   0  11   15.00    1.40
  -1   0  11   14.59    2.16
   0   0 -11    0.16    1.01
   0   0 -11    1.34    1.25
   0   0  11    0.97    0.93
   0   0  11    1.08    0.65
   0   0  11    0.74    0.79
   0   0  11    0.45    0.78
  -1   0 -11    6.64    1.58
  -1   0 -11    4.93    1.43
  -1   0 -11   10.73    2.30
   1   0  11    7.61    0.94
   1   0  11    9.92    1.82
   1   0  11    7.49    1.55
   1   0  11    7.69    1.47
   1   0  11    7.18    1.84
  -2   0 -11   -0.73    1.18
  -2   0 -11   -0.78    0.83
  -2   0 -11   -0.06    1.22
   2   0  11   -0.81    0.61
   2   0  11    0.47    0.63
   2   0  11   -0.34    0.54
   2   0  11    1.06    0.90
   2   0  11    0.34    0.96
  -3   0 -11    1.38    1.33
  -3   0 -11    0.41    1.00
   3   0  11   -0.02    1.05
   3   0  11   -0.51    1.14
   3   0  11   -0.51    0.63
  -4   0 -11   32.73    3.06
  -4   0 -11   31.58    4.23
   4   0  11   26.78    3.96
   8  -1 -11    6.74    2.09
   8  -1 -11    3.48    1.79
  -8   1  11    7.76    2.06
  -8   1  11    8.31    1.84
   7  -1 -11    5.56    1.84
   7  -1 -11    1.48    1.75
   7  -1 -11    1.26    1.52
  -7   1  11   -0.73    0.98
  -7   1  11    1.92    1.14
   6  -1 -11   -0.70    0.87
   6  -1 -11    1.03    1.21
   6  -1 -11   -1.04    0.65
  -6   1  11    0.42    0.82
  -6   1  11    0.98    0.87
  -6   1  11    0.26    0.85
   5  -1 -11    4.50    1.30
   5  -1 -11    4.75    0.92
   5  -1 -11    3.94    1.68
  -5   1  11    6.38    1.57
  -5   1  11    4.72    1.34
  -5   1  11    2.96    1.27
   4  -1 -11    0.48    0.83
   4  -1 -11    1.59    1.21
   4  -1 -11    0.62    0.96
  -4   1  11    1.18    0.89
  -4   1  11    1.77    1.08
  -4   1  11    1.80    0.85
   3  -1 -11    7.91    1.52
   3  -1 -11    7.19    1.80
   3  -1 -11    7.18    1.79
  -3   1  11    7.80    1.73
  -3   1  11    8.10    1.36
  -3   1  11    8.49    1.80
  -3   1  11   10.36    1.46
   2  -1 -11    1.99    1.28
   2  -1 -11    2.93    1.26
  -2   1  11    1.79    0.90
  -2   1  11   -0.77    0.55
  -2   1  11    0.83    0.56
  -2   1  11    0.69    0.70
  -2   1  11    1.50    0.59
   1  -1 -11    1.19    1.13
   1  -1 -11    0.04    1.17
  -1   1  11    0.17    0.77
  -1   1  11    0.65    0.44
  -1   1  11    2.18    1.06
  -1   1  11    0.04    0.45
  -1   1  11    1.65    0.93
   0  -1 -11    2.29    1.18
   0  -1 -11    3.12    1.38
   0  -1 -11    2.02    1.04
   0   1  11    0.38    0.71
   0   1  11    1.22    1.13
   0   1  11    0.11    0.92
   0   1  11    1.52    0.95
  -1  -1 -11    0.53    0.95
  -1  -1 -11   -2.58    0.94
  -1  -1 -11   -0.91    0.61
   1   1  11    1.13    0.92
   1   1  11   -1.21    0.86
   1   1  11    0.18    0.68
  -2  -1 -11    3.04    1.43
  -2  -1 -11    0.09    0.75
  -2  -1 -11    1.40    1.26
   2   1  11   -0.06    0.79
   2   1  11   -0.07    0.75
   2   1  11    0.50    0.95
  -3  -1 -11    1.24    1.05
  -3  -1 -11    2.87    1.29
   3   1  11    0.67    0.74
   3   1  11    1.12    1.22
   3   1  11   -0.46    1.17
  -4  -1 -11   19.14    3.33
  -4  -1 -11   20.54    2.76
   4   1  11   20.02    3.44
   8  -2 -11    1.21    1.66
   8  -2 -11    1.42    1.67
   8  -2 -11   -0.34    1.29
  -8   2  11    1.53    1.36
  -8   2  11    0.77    1.12
   7  -2 -11    0.66    1.16
   7  -2 -11    2.35    1.49
   7  -2 -11    1.46    1.23
  -7   2  11   -0.04    0.93
  -7   2  11    0.08    0.74
   6  -2 -11    1.19    1.32
   6  -2 -11   -1.90    0.88
   6  -2 -11   -1.18    0.72
   6  -2 -11    2.48    1.54
  -6   2  11    0.47    1.00
   5  -2 -11   21.46    3.04
   5  -2 -11   17.96    2.90
   5  -2 -11   21.67    3.48
   5  -2 -11   17.26    3.00
  -5   2  11   19.03    2.74
  -5   2  11   15.50    1.99
   4  -2 -11    1.79    1.29
   4  -2 -11    5.54    1.73
  -4   2  11    5.99    1.34
  -4   2  11    3.85    1.37
  -4   2  11    5.88    1.19
   3  -2 -11    6.68    1.64
   3  -2 -11    6.90    1.80
  -3   2  11    9.22    1.78
  -3   2  11    6.58    1.61
  -3   2  11    7.07    1.06
  -3   2  11    5.12    1.10
   2  -2 -11   18.57    2.69
   2  -2 -11   18.74    2.86
  -2   2  11   15.18    1.12
  -2   2  11   13.61    2.15
  -2   2  11   11.39    0.99
  -2   2  11   13.93    0.97
   1  -2 -11    0.39    0.68
   1  -2 -11   -0.15    0.89
   1  -2 -11    0.75    0.98
  -1   2  11   -1.23    0.67
  -1   2  11    0.06    0.86
  -1   2  11    0.37    0.73
   0  -2 -11    1.91    1.38
   0  -2 -11    3.90    1.63
   0  -2 -11    3.69    1.38
   0   2  11    4.59    1.33
   0   2  11    4.52    1.31
   0   2  11    4.58    1.43
  -1  -2 -11    5.26    1.62
  -1  -2 -11    4.83    1.50
  -1  -2 -11    0.94    1.08
   1   2  11    3.06    1.78
   1   2  11    1.41    1.12
   1   2  11    3.69    1.06
  -2  -2 -11    0.94    0.99
  -2  -2 -11    2.35    1.39
   2   2  11   -0.81    0.97
   2   2  11    1.93    1.33
   2   2  11    3.50    1.27
  -3  -2 -11    2.74    1.82
  -3  -2 -11    2.70    1.34
   3   2  11   -0.25    0.89
   7  -3 -11    3.40    1.87
   7  -3 -11    4.36    1.71
   7  -3 -11    5.42    1.96
  -7   3  11    3.45    1.68
  -7   3  11    2.14    1.15
   6  -3 -11   -1.06    1.08
   6  -3 -11   -0.60    1.08
   6  -3 -11    0.37    0.85
  -6   3  11    0.91    1.09
  -6   3  11    0.17    0.94
   5  -3 -11    1.65    1.51
   5  -3 -11    4.66    1.82
   5  -3 -11    0.63    1.18
  -5   3  11    2.05    0.83
  -5   3  11    1.04    1.10
   4  -3 -11   -0.80    0.78
   4  -3 -11    1.65    1.17
  -4   3  11    1.04    1.19
  -4   3  11    0.12    0.63
   3  -3 -11    1.45    1.35
   3  -3 -11    0.65    1.19
  -3   3  11   -0.77    0.91
  -3   3  11   -0.92    0.85
  -3   3  11    0.18    0.46
   2  -3 -11    5.85    1.90
  -2   3  11    4.09    0.78
  -2   3  11    4.07    1.41
  -2   3  11    2.84    0.76
  -2   3  11    3.31    1.35
   1  -3 -11    3.74    1.39
   1  -3 -11    5.90    1.72
   1  -3 -11    6.31    1.71
  -1   3  11   10.33    1.87
  -1   3  11    8.43    1.83
   0  -3 -11    1.37    1.55
   0  -3 -11    0.55    1.01
   0  -3 -11    2.17    1.26
   0   3  11    2.69    1.15
  -1  -3 -11    0.89    1.02
  -1  -3 -11   -2.56    1.02
   1   3  11    0.51    0.79
   1   3  11    0.31    1.18
   1   3  11    0.24    1.16
  -2  -3 -11    4.64    1.21
  -2  -3 -11    0.30    1.51
   2   3  11    2.81    1.32
   2   3  11    3.54    1.42
   7  -4 -11    1.32    1.46
   7  -4 -11    2.61    1.53
   7  -4 -11   -0.73    1.46
  -7   4  11   -0.14    1.33
   6  -4 -11    3.87    1.43
   6  -4 -11    5.77    1.88
   6  -4 -11    6.00    1.84
  -6   4  11    4.96    1.74
  -6   4  11    3.00    1.14
   5  -4 -11    5.35    2.03
   5  -4 -11   10.16    2.46
   5  -4 -11    9.33    2.01
  -5   4  11    8.40    2.03
  -5   4  11    8.79    1.34
  -5   4  11    6.39    1.62
   4  -4 -11   -0.47    0.96
   4  -4 -11    2.38    1.37
  -4   4  11    1.19    1.28
  -4   4  11    0.18    0.87
  -4   4  11   -0.90    0.61
   3  -4 -11   -1.28    0.96
   3  -4 -11   -1.06    1.01
  -3   4  11    2.64    1.44
  -3   4  11   -0.03    0.35
  -3   4  11   -1.10    0.78
   2  -4 -11    1.13    1.09
   2  -4 -11   -1.11    0.98
  -2   4  11    0.66    0.69
  -2   4  11    2.43    1.41
  -2   4  11    2.06    1.26
   1  -4 -11    8.16    1.73
   1  -4 -11    4.77    2.07
   1  -4 -11    5.87    1.68
  -1   4  11    7.12    1.52
  -1   4  11    3.99    1.54
   0  -4 -11    1.63    0.89
   0  -4 -11    1.80    1.67
   0   4  11    1.13    1.22
   0   4  11    2.04    1.22
  -1  -4 -11   -0.26    0.92
  -1  -4 -11    0.51    1.19
   1   4  11   -0.64    1.05
   1   4  11    0.04    0.94
   6  -5 -11    1.71    1.59
   6  -5 -11   -0.17    1.29
   6  -5 -11    2.39    1.61
  -6   5  11    0.19    1.24
  -6   5  11    1.09    1.18
  -6   5  11    2.37    1.60
   5  -5 -11    1.38    1.13
   5  -5 -11    0.35    1.14
   5  -5 -11   -1.02    1.07
  -5   5  11   -0.88    0.72
  -5   5  11    0.70    1.28
   4  -5 -11   -0.95    0.88
   4  -5 -11    0.74    1.33
  -4   5  11    2.56    1.45
  -4   5  11    0.08    1.24
  -4   5  11    0.49    0.67
   3  -5 -11   -0.34    1.06
   3  -5 -11    0.11    1.10
  -3   5  11   -0.32    0.97
  -3   5  11   -2.78    0.98
   2  -5 -11    1.89    1.09
   2  -5 -11    1.88    1.56
  -2   5  11    2.21    1.42
  -2   5  11    1.33    1.07
  -2   5  11    0.46    0.83
   1  -5 -11   -0.14    0.91
   1  -5 -11   -1.51    0.95
  -1   5  11   -0.63    1.07
  -1   5  11   -0.06    1.45
   0  -5 -11    2.38    1.29
   0  -5 -11    0.78    1.03
   0   5  11    1.05    1.25
   4  -6 -11    0.57    1.33
   4  -6 -11    0.36    1.21
  -4   6  11   -2.02    0.97
  -4   6  11   -0.69    1.10
  -4   6  11   -2.06    1.41
   3  -6 -11    0.71    1.35
   3  -6 -11    0.97    1.13
  -3   6  11    0.60    1.29
  -3   6  11   -1.57    1.44
  -3   6  11   -0.54    1.07
   2  -6 -11   -1.57    1.21
   2  -6 -11   -2.11    0.91
  -2   6  11    4.20    1.73
  -2   6  11    0.55    1.06
   1   9 -12    1.50    1.84
   1   9 -12    0.05    2.04
   1   9 -12    0.96    1.17
  -1  -9  12    3.47    1.47
  -1  -9  12   -0.07    1.16
  -1  -9  12   -0.51    1.01
   0   9 -12   -0.11    1.40
   0   9 -12   -2.89    1.69
   0   9 -12    1.12    1.40
   0  -9  12   -1.31    1.02
   0  -9  12   -1.51    0.95
   0  -9  12   -0.78    0.93
  -1   9 -12   -0.65    1.67
  -1   9 -12    1.18    1.11
  -1   9 -12    0.52    1.28
   1  -9  12    0.22    1.16
   1  -9  12   -1.56    1.00
   1  -9  12   -0.10    1.14
   3   8 -12    0.99    1.24
   3   8 -12    2.02    1.45
  -3  -8  12    0.10    0.76
  -3  -8  12    0.92    0.97
  -3  -8  12    2.34    1.33
   2   8 -12    0.44    1.47
   2   8 -12   -0.10    1.72
   2   8 -12   -0.20    1.26
  -2  -8  12    0.02    0.90
  -2  -8  12    0.14    0.97
   1   8 -12    1.36    1.36
   1   8 -12    0.11    1.69
   1   8 -12   -0.99    0.99
   1   8 -12    1.03    1.02
  -1  -8  12    0.22    0.99
  -1  -8  12    1.88    1.06
   0   8 -12    0.01    1.12
   0   8 -12    2.54    1.54
   0  -8  12    0.87    0.99
   0  -8  12   -0.06    1.12
   0  -8  12   -0.33    0.86
  -1   8 -12    2.31    1.71
  -1   8 -12    3.76    1.24
  -1   8 -12    5.51    1.57
   1  -8  12    1.76    1.34
   1  -8  12    2.65    1.25
  -2   8 -12   12.65    2.64
  -2   8 -12   14.94    2.25
  -2   8 -12   14.46    2.19
   2  -8  12   18.84    3.10
   2  -8  12   14.17    2.56
   2  -8  12   12.74    2.11
   4   7 -12   -0.25    1.40
  -4  -7  12   -0.90    0.82
  -4  -7  12    0.51    1.00
   3   7 -12   13.38    2.66
   3   7 -12   13.28    1.84
   3   7 -12   14.03    2.20
   3   7 -12   17.81    2.61
  -3  -7  12   16.13    2.57
  -3  -7  12   14.40    2.41
  -3  -7  12   16.02    1.26
   2   7 -12   11.10    1.96
   2   7 -12   14.04    1.92
   2   7 -12   21.26    3.05
   2   7 -12   21.68    3.40
  -2  -7  12   20.27    2.85
  -2  -7  12   12.39    2.16
  -2  -7  12   16.44    1.70
   1   7 -12    1.42    1.01
   1   7 -12    1.29    1.00
   1   7 -12    0.28    1.09
  -1  -7  12    0.99    0.92
  -1  -7  12    0.98    0.98
  -1  -7  12   -0.50    0.88
   0   7 -12    1.70    1.34
   0   7 -12   -1.57    0.88
   0  -7  12    0.89    1.00
   0  -7  12    2.37    1.08
   0  -7  12    1.23    0.91
  -1   7 -12    0.44    0.83
  -1   7 -12    0.36    0.99
  -1   7 -12    1.06    1.11
   1  -7  12    0.43    0.93
   1  -7  12    0.34    1.05
   1  -7  12    1.68    1.20
  -2   7 -12   10.53    2.21
  -2   7 -12   12.10    1.94
  -2   7 -12    6.52    2.04
   2  -7  12    7.79    1.82
   2  -7  12    8.03    1.97
   2  -7  12    6.00    1.73
  -3   7 -12   -1.56    0.89
  -3   7 -12    0.45    1.58
  -3   7 -12    0.99    1.30
   3  -7  12    3.88    1.78
   3  -7  12    1.30    1.18
   3  -7  12    0.54    1.35
   5   6 -12   -0.53    1.05
  -5  -6  12    0.41    1.10
  -5  -6  12    0.83    0.90
   4   6 -12    3.26    1.21
   4   6 -12    2.56    1.29
   4   6 -12    6.25    2.19
  -4  -6  12    7.37    1.74
  -4  -6  12    4.13    1.42
   3   6 -12    1.81    1.21
   3   6 -12   -1.19    0.91
   3   6 -12    0.86    0.98
  -3  -6  12   -0.81    0.88
  -3  -6  12    1.27    1.05
   2   6 -12   -0.19    0.71
   2   6 -12    0.58    1.29
   2   6 -12   -1.78    0.71
   2   6 -12   -0.87    0.94
  -2  -6  12   -1.24    0.59
  -2  -6  12   -1.22    0.68
   1   6 -12    2.13    1.39
   1   6 -12    0.47    0.96
   1   6 -12    3.06    1.13
  -1  -6  12    0.80    0.99
  -1  -6  12    1.78    0.97
   0   6 -12    7.18    2.07
   0   6 -12    8.22    1.63
   0   6 -12   12.42    1.87
   0  -6  12   11.05    2.11
   0  -6  12    9.31    2.25
   0  -6  12    9.40    1.68
  -1   6 -12    2.52    1.27
  -1   6 -12    0.10    0.79
  -1   6 -12    2.47    1.40
   1  -6  12    1.54    0.97
   1  -6  12    0.37    0.88
   1  -6  12    1.32    1.23
  -2   6 -12    4.17    1.45
  -2   6 -12    2.75    1.00
  -2   6 -12    1.15    1.23
   2  -6  12    1.87    1.33
   2  -6  12    4.92    1.56
  -3   6 -12    2.22    0.97
  -3   6 -12    4.70    1.81
   3  -6  12    2.67    1.75
   3  -6  12    3.31    1.18
   3  -6  12    1.56    1.26
  -4   6 -12    2.89    1.56
  -4   6 -12    3.18    1.08
  -4   6 -12    2.85    1.51
   4  -6  12    4.15    1.58
   4  -6  12    2.59    2.01
   4  -6  12    4.56    1.42
   6   5 -12    0.17    1.12
  -6  -5  12    1.67    1.31
  -6  -5  12    0.65    1.02
  -6  -5  12   -0.18    1.00
   5   5 -12    1.29    1.42
   5   5 -12    0.18    1.27
   5   5 -12    0.71    0.78
  -5  -5  12    2.25    1.15
  -5  -5  12    1.21    1.03
   4   5 -12   -0.54    1.40
   4   5 -12    0.50    1.13
   4   5 -12   -0.20    0.93
  -4  -5  12   -0.39    0.89
  -4  -5  12    0.15    0.79
   3   5 -12    3.52    1.29
   3   5 -12    4.78    1.96
   3   5 -12    2.00    0.62
   3   5 -12    3.70    1.35
  -3  -5  12    4.07    1.36
  -3  -5  12    7.10    1.63
   2   5 -12    0.59    1.16
   2   5 -12    1.34    0.92
  -2  -5  12    1.06    1.00
  -2  -5  12    0.45    0.82
  -2  -5  12    0.45    0.65
   1   5 -12   -0.30    0.66
   1   5 -12    0.05    1.11
   1   5 -12   -0.82    0.49
   1   5 -12    0.77    0.76
  -1  -5  12   -0.41    0.81
  -1  -5  12   -0.58    0.74
  -1  -5  12    0.14    0.72
   0   5 -12   25.83    3.34
   0   5 -12   19.87    1.65
   0   5 -12   24.51    2.56
   0  -5  12   21.63    2.32
   0  -5  12   27.81    2.86
  -1   5 -12   -1.18    0.61
  -1   5 -12   -0.57    1.07
  -1   5 -12   -1.16    0.98
  -1   5 -12   -2.00    0.93
   1  -5  12   -0.99    0.63
   1  -5  12    0.96    0.99
  -2   5 -12    6.79    1.15
  -2   5 -12   10.97    2.09
  -2   5 -12    7.54    2.06
   2  -5  12   10.98    2.24
   2  -5  12    8.92    1.98
  -3   5 -12   -0.28    1.14
  -3   5 -12    1.63    1.28
  -3   5 -12    1.55    0.87
   3  -5  12    1.90    1.21
   3  -5  12    1.51    1.05
  -4   5 -12    1.03    1.59
  -4   5 -12    3.87    1.54
   4  -5  12    2.19    1.39
   4  -5  12    1.86    1.18
   4  -5  12    2.31    1.52
   6   4 -12    0.96    1.33
   6   4 -12   -0.11    0.99
   6   4 -12    2.14    1.48
  -6  -4  12   -0.80    0.84
  -6  -4  12   -1.90    0.84
  -6  -4  12   -0.04    1.46
   5   4 -12    6.42    1.73
   5   4 -12    7.86    2.24
   5   4 -12    4.45    1.09
   5   4 -12    5.45    1.67
  -5  -4  12    6.23    1.54
  -5  -4  12    8.63    1.97
   4   4 -12    1.39    1.37
   4   4 -12   -0.02    0.74
   4   4 -12    2.90    1.12
   4   4 -12    0.20    1.06
  -4  -4  12    0.14    0.83
  -4  -4  12   -0.97    0.48
   3   4 -12    0.01    0.88
   3   4 -12    0.87    0.89
   3   4 -12    0.32    1.05
  -3  -4  12    0.67    1.03
   2   4 -12    1.80    1.02
   2   4 -12    2.70    1.19
   2   4 -12    0.74    0.85
  -2  -4  12    2.26    1.28
  -2  -4  12    2.16    1.16
  -2  -4  12    2.74    0.88
   1   4 -12    1.35    1.05
   1   4 -12    1.14    0.87
   1   4 -12    1.89    1.07
  -1  -4  12    3.16    1.44
  -1  -4  12    0.55    0.71
  -1  -4  12    2.50    1.06
   0   4 -12    8.33    1.69
   0   4 -12    8.73    1.94
   0   4 -12    4.28    1.52
   0  -4  12    7.21    1.62
   0  -4  12    7.86    1.76
   0  -4  12    8.70    1.90
  -1   4 -12    1.97    1.43
  -1   4 -12    2.18    1.26
   1  -4  12    2.10    1.10
   1  -4  12    2.81    1.36
   1  -4  12    3.28    1.31
  -2   4 -12    0.77    1.16
  -2   4 -12    2.59    1.44
   2  -4  12    3.10    1.16
   2  -4  12    1.55    1.01
   2  -4  12    1.02    1.03
  -3   4 -12    2.48    1.37
  -3   4 -12    2.13    1.55
   3  -4  12    2.04    1.41
   3  -4  12    3.16    1.20
   3  -4  12    2.69    1.61
  -4   4 -12   -1.11    1.19
  -4   4 -12    1.40    1.40
   4  -4  12    2.16    1.26
   4  -4  12    0.88    0.94
   4  -4  12    1.00    1.58
   7   3 -12    3.24    1.39
   7   3 -12    3.15    2.01
  -7  -3  12    4.43    1.51
  -7  -3  12    3.42    1.51
  -7  -3  12    4.59    1.55
   6   3 -12    1.31    1.42
   6   3 -12    0.39    1.39
   6   3 -12    0.88    1.01
   6   3 -12    2.68    1.68
  -6  -3  12    1.71    1.18
  -6  -3  12    1.05    0.98
  -6  -3  12    1.58    1.21
   5   3 -12    7.08    2.11
   5   3 -12    6.49    1.80
   5   3 -12    6.41    1.51
   5   3 -12    6.70    1.72
  -5  -3  12    7.22    1.64
  -5  -3  12    6.55    1.74
  -5  -3  12    6.44    1.56
   4   3 -12    3.36    1.46
   4   3 -12    1.37    1.54
   4   3 -12    5.53    1.70
  -4  -3  12    2.72    1.45
   3   3 -12    2.49    1.15
   3   3 -12    6.95    1.97
  -3  -3  12    3.77    1.27
  -3  -3  12    5.09    1.44
   2   3 -12   20.54    2.15
   2   3 -12   20.38    2.79
   2   3 -12   26.03    2.66
  -2  -3  12   21.47    1.81
  -2  -3  12   19.32    2.49
  -2  -3  12   23.64    2.37
   1   3 -12    3.59    1.41
   1   3 -12    2.36    1.24
   1   3 -12    5.24    1.67
  -1  -3  12    3.95    1.06
  -1  -3  12    3.32    1.22
  -1  -3  12    4.19    1.37
   0   3 -12   32.48    3.05
   0   3 -12   26.48    2.71
   0  -3  12   31.41    2.62
   0  -3  12   28.71    2.71
   0  -3  12   24.63    2.38
  -1   3 -12   -0.40    0.76
  -1   3 -12    0.30    1.23
   1  -3  12    1.56    0.93
   1  -3  12   -0.24    0.73
   1  -3  12    0.74    1.02
  -2   3 -12   -1.78    0.91
  -2   3 -12   -0.05    1.09
   2  -3  12   -0.42    1.17
   2  -3  12   -0.77    0.73
   2  -3  12    0.14    0.81
  -3   3 -12    1.64    1.16
  -3   3 -12    2.18    1.66
   3  -3  12   -0.53    0.92
   3  -3  12    0.32    0.65
   3  -3  12    0.50    1.10
   3  -3  12    0.66    0.80
  -4   3 -12    7.17    2.04
  -4   3 -12    4.53    1.92
   4  -3  12    2.97    1.24
   4  -3  12    2.59    1.69
   4  -3  12    2.85    1.97
   7   2 -12    0.25    1.21
   7   2 -12    1.81    1.48
  -7  -2  12    1.51    1.16
  -7  -2  12   -0.11    0.89
  -7  -2  12    1.00    1.10
   6   2 -12    4.83    1.36
   6   2 -12    8.94    1.70
   6   2 -12   10.43    2.82
   6   2 -12    8.93    2.01
  -6  -2  12    6.59    1.56
  -6  -2  12   10.41    2.00
  -6  -2  12    7.16    1.81
   5   2 -12   17.83    3.19
   5   2 -12   18.21    2.87
  -5  -2  12   15.54    2.48
  -5  -2  12   13.15    2.15
  -5  -2  12   12.40    2.13
   4   2 -12    0.44    1.28
   4   2 -12    0.50    1.05
   4   2 -12    2.16    0.98
  -4  -2  12    0.39    0.87
  -4  -2  12    1.69    1.21
   3   2 -12    0.11    1.02
   3   2 -12    2.81    1.31
  -3  -2  12    1.77    0.94
  -3  -2  12    2.11    1.09
   2   2 -12   -0.30    0.89
   2   2 -12    0.08    0.73
  -2  -2  12    0.04    0.75
  -2  -2  12    0.90    0.67
  -2  -2  12   -0.84    0.80
  -2  -2  12    1.59    0.80
   1   2 -12    7.10    1.88
   1   2 -12    6.46    1.79
  -1  -2  12    8.68    1.87
  -1  -2  12    5.93    0.90
  -1  -2  12    7.76    1.54
  -1  -2  12    7.41    1.65
   0   2 -12    4.55    1.64
   0   2 -12    5.11    1.70
   0  -2  12    3.31    1.31
   0  -2  12    2.96    1.17
   0  -2  12    3.63    1.11
  -1   2 -12    0.62    1.29
  -1   2 -12   -0.50    0.89
   1  -2  12    1.27    0.97
   1  -2  12   -1.02    0.71
   1  -2  12    1.98    1.33
  -2   2 -12   -0.40    1.01
   2  -2  12    1.61    0.88
   2  -2  12   -0.66    0.98
  -3   2 -12    1.94    1.66
  -3   2 -12    1.03    1.04
   3  -2  12    0.72    0.80
   3  -2  12   -0.22    1.12
   3  -2  12    0.31    0.70
   3  -2  12    0.48    1.16
  -4   2 -12    4.41    1.70
  -4   2 -12   11.68    2.76
   4  -2  12   11.57    2.61
   4  -2  12   11.09    3.02
   4  -2  12    8.20    1.63
   7   1 -12    1.18    1.33
   7   1 -12    0.33    1.48
   7   1 -12    1.61    1.49
  -7  -1  12    1.42    1.16
  -7  -1  12   -0.55    0.84
  -7  -1  12    2.59    1.41
   6   1 -12    3.02    1.41
   6   1 -12    3.08    1.50
  -6  -1  12    1.45    1.09
  -6  -1  12    2.19    0.98
  -6  -1  12    2.18    1.15
   5   1 -12    6.18    2.08
   5   1 -12    6.68    1.76
   5   1 -12    6.46    2.07
  -5  -1  12    6.26    1.77
  -5  -1  12    3.46    1.23
  -5  -1  12    5.68    1.47
   4   1 -12   -0.38    1.02
  -4  -1  12    0.07    0.69
  -4  -1  12    0.36    0.86
  -4  -1  12    2.09    1.15
   3   1 -12    0.35    1.11
   3   1 -12    2.27    1.29
  -3  -1  12    1.00    1.01
  -3  -1  12    1.61    0.97
  -3  -1  12    2.50    0.95
  -3  -1  12   -0.08    0.64
   2   1 -12   -0.71    0.90
   2   1 -12    1.19    1.15
  -2  -1  12    2.11    0.78
  -2  -1  12    1.61    0.92
  -2  -1  12    0.07    0.95
   1   1 -12    8.05    1.96
   1   1 -12    9.45    2.17
  -1  -1  12   11.90    1.95
  -1  -1  12    7.24    1.30
  -1  -1  12    6.51    1.57
  -1  -1  12    7.50    1.52
   0   1 -12    2.88    1.26
   0   1 -12   -0.99    0.88
   0  -1  12   -1.14    0.82
   0  -1  12    1.15    0.86
   0  -1  12   -0.27    0.79
   0  -1  12   -0.17    0.72
  -1   1 -12    1.83    1.22
   1  -1  12    1.76    1.04
   1  -1  12    3.22    1.34
   1  -1  12    2.30    1.14
   1  -1  12    1.86    0.83
  -2   1 -12    3.59    1.39
  -2   1 -12    0.67    1.06
   2  -1  12    5.18    1.26
   2  -1  12    5.10    1.73
   2  -1  12    4.23    1.14
   2  -1  12    2.40    1.32
   2  -1  12    3.48    1.17
  -3   1 -12    3.39    1.84
  -3   1 -12    1.07    1.34
   3  -1  12    3.57    1.35
   3  -1  12    2.26    1.39
   3  -1  12    1.05    0.98
   3  -1  12    0.26    1.49
  -4   1 -12    4.24    1.39
  -4   1 -12    3.96    1.74
   4  -1  12    1.68    1.67
   7   0 -12    0.99    1.49
   7   0 -12    4.57    1.94
   7   0 -12    1.37    1.56
  -7   0  12    1.60    0.95
  -7   0  12    2.36    1.12
  -7   0  12    0.41    1.25
   6   0 -12    7.31    1.92
   6   0 -12    6.88    1.86
   6   0 -12    4.42    1.97
  -6   0  12    6.32    1.63
  -6   0  12    6.97    1.61
  -6   0  12    8.71    1.87
   5   0 -12   16.22    2.53
   5   0 -12   16.40    2.80
   5   0 -12   16.29    2.95
  -5   0  12   13.96    2.17
  -5   0  12   15.12    2.59
  -5   0  12   15.53    2.13
   4   0 -12   21.39    2.97
  -4   0  12   19.83    3.01
  -4   0  12   21.68    2.85
  -4   0  12   20.56    1.99
   3   0 -12   27.47    3.71
   3   0 -12   24.77    2.09
   3   0 -12   23.92    3.11
  -3   0  12   21.09    3.01
  -3   0  12   23.45    3.03
  -3   0  12   26.61    2.03
  -3   0  12   22.28    1.88
   2   0 -12    3.05    1.25
   2   0 -12    3.55    1.45
  -2   0  12    2.27    0.72
  -2   0  12    1.06    0.87
  -2   0  12    0.48    0.86
  -2   0  12    0.88    0.80
  -2   0  12    3.56    0.93
  -2   0  12    0.91    0.72
   1   0 -12    0.89    1.01
   1   0 -12    1.05    1.34
  -1   0  12   -0.06    0.79
  -1   0  12    0.98    0.91
  -1   0  12   -0.58    0.84
  -1   0  12   -0.52    0.67
   0   0 -12   -0.82    0.97
   0   0  12   -0.95    0.54
   0   0  12   -0.07    1.08
   0   0  12   -0.18    0.79
  -1   0 -12   -0.90    0.92
  -1   0 -12    0.35    1.17
   1   0  12    0.98    0.95
   1   0  12   -0.26    0.59
   1   0  12   -0.32    0.79
   1   0  12    0.50    1.06
  -2   0 -12    2.18    1.14
  -2   0 -12    2.11    1.54
   2   0  12    3.95    1.82
   2   0  12   -0.07    1.12
   2   0  12    1.49    0.92
  -3   0 -12    1.00    0.97
  -3   0 -12    0.15    1.31
   3   0  12    0.10    1.29
   7  -1 -12    0.15    1.55
   7  -1 -12    1.63    1.48
   7  -1 -12    1.89    1.07
  -7   1  12   -0.49    0.84
  -7   1  12    2.13    1.04
  -7   1  12    0.93    1.16
   6  -1 -12   -0.33    1.18
   6  -1 -12    2.72    1.32
   6  -1 -12    2.65    1.60
  -6   1  12    1.30    0.91
  -6   1  12    3.00    1.21
  -6   1  12    2.12    1.02
   5  -1 -12    0.47    1.29
   5  -1 -12   -1.33    0.75
   5  -1 -12    1.43    1.14
   5  -1 -12    0.96    0.94
  -5   1  12    0.52    0.86
  -5   1  12   -1.46    0.67
  -5   1  12    0.51    0.80
   4  -1 -12   -0.04    1.05
   4  -1 -12    0.50    0.77
   4  -1 -12    1.46    0.82
  -4   1  12    0.58    0.80
  -4   1  12    2.37    1.07
  -4   1  12    1.35    1.04
   3  -1 -12    2.58    1.22
   3  -1 -12    1.34    1.23
  -3   1  12    1.27    0.94
  -3   1  12    1.39    0.75
  -3   1  12    1.75    1.00
  -3   1  12    0.59    1.01
   2  -1 -12   -0.56    0.71
   2  -1 -12    0.92    1.13
  -2   1  12    0.03    0.77
  -2   1  12    0.16    0.50
  -2   1  12    0.22    0.46
  -2   1  12    0.22    0.71
  -2   1  12    0.76    0.61
   1  -1 -12    2.26    1.47
   1  -1 -12    0.59    1.14
  -1   1  12    1.20    1.05
  -1   1  12    1.04    0.60
  -1   1  12    1.48    0.78
  -1   1  12   -0.16    0.49
  -1   1  12    1.62    0.91
   0  -1 -12    0.67    1.17
   0  -1 -12    2.40    1.33
   0   1  12    0.74    0.94
   0   1  12    2.24    0.91
   0   1  12    0.03    0.73
   0   1  12    1.44    1.17
  -1  -1 -12    0.15    1.44
  -1  -1 -12   -0.29    1.01
  -1  -1 -12   -1.00    1.13
   1   1  12    0.75    0.90
   1   1  12    0.77    0.74
   1   1  12    0.45    1.04
  -2  -1 -12    1.68    1.25
  -2  -1 -12    1.97    0.88
   2   1  12    0.30    1.24
   2   1  12    0.49    0.98
   2   1  12   -1.22    0.96
  -3  -1 -12    2.56    1.60
  -3  -1 -12    0.61    1.05
   3   1  12    0.73    1.01
   3   1  12   -0.05    1.27
   7  -2 -12    2.45    1.50
   7  -2 -12    0.41    1.46
   7  -2 -12    1.38    1.56
  -7   2  12    1.41    1.22
  -7   2  12    1.34    1.33
   6  -2 -12    2.93    1.31
   6  -2 -12    1.89    1.60
   6  -2 -12    2.54    1.58
  -6   2  12    1.36    1.13
  -6   2  12    0.76    1.09
   5  -2 -12    4.73    1.74
   5  -2 -12    8.51    2.35
   5  -2 -12    4.88    1.82
  -5   2  12    4.22    1.71
  -5   2  12    4.20    1.23
   4  -2 -12    5.04    1.70
   4  -2 -12    5.47    1.67
  -4   2  12    4.53    1.50
   3  -2 -12    9.10    2.15
   3  -2 -12    7.45    1.91
  -3   2  12    9.11    1.20
  -3   2  12   10.73    2.12
   2  -2 -12   14.33    2.76
   2  -2 -12   17.09    3.16
  -2   2  12   14.52    2.40
   1  -2 -12   24.85    3.48
   1  -2 -12   27.59    3.39
  -1   2  12   21.53    2.90
  -1   2  12   23.91    2.89
  -1   2  12   21.68    2.81
   0  -2 -12    4.73    1.59
   0  -2 -12    5.73    1.67
   0   2  12    6.02    1.55
   0   2  12    2.18    1.35
  -1  -2 -12   -2.81    1.08
  -1  -2 -12    1.04    1.16
   1   2  12    1.79    1.51
   1   2  12   -0.45    0.66
  -2  -2 -12   -0.86    1.38
  -2  -2 -12   -0.05    0.88
   2   2  12   -0.27    1.27
   2   2  12    0.51    1.10
   6  -3 -12    0.06    1.32
   6  -3 -12    4.85    1.82
   6  -3 -12    1.18    1.44
  -6   3  12   -0.36    0.87
  -6   3  12    2.80    1.50
   5  -3 -12    0.05    1.13
   5  -3 -12    0.20    1.07
   5  -3 -12   -1.85    1.07
  -5   3  12    0.27    0.80
  -5   3  12   -0.85    1.14
   4  -3 -12    0.32    0.86
   4  -3 -12    0.73    1.14
  -4   3  12    1.52    1.41
  -4   3  12   -0.98    0.56
   3  -3 -12    4.05    1.81
   3  -3 -12    5.88    1.76
  -3   3  12    3.54    0.67
  -3   3  12    5.37    1.69
  -3   3  12    3.95    1.59
  -3   3  12    2.82    0.85
   2  -3 -12    5.44    1.79
  -2   3  12    7.14    1.82
  -2   3  12    4.96    1.39
   1  -3 -12    4.33    1.49
   1  -3 -12    2.37    1.62
  -1   3  12    3.72    1.46
  -1   3  12    2.24    1.16
   0  -3 -12    2.63    1.24
   0  -3 -12    3.10    1.58
   0   3  12    1.18    1.17
   0   3  12    2.35    1.20
   0   3  12    4.29    1.48
  -1  -3 -12    1.21    1.44
  -1  -3 -12    0.73    1.35
   1   3  12    3.07    1.57
   1   3  12    2.33    1.32
   6  -4 -12    3.79    1.66
   6  -4 -12    5.27    1.79
   6  -4 -12    4.19    1.77
  -6   4  12    2.63    1.70
  -6   4  12    2.11    1.17
  -6   4  12    4.64    1.89
   5  -4 -12    1.47    1.56
   5  -4 -12   -2.65    1.01
   5  -4 -12    0.18    1.40
  -5   4  12   -1.60    0.98
  -5   4  12    0.28    0.98
  -5   4  12   -0.23    1.15
   4  -4 -12   -1.16    0.98
   4  -4 -12   -1.38    1.13
  -4   4  12    1.49    1.16
  -4   4  12    1.27    1.17
  -4   4  12   -0.65    0.69
   3  -4 -12   -0.07    0.88
   3  -4 -12    0.59    0.97
  -3   4  12   -0.23    1.09
  -3   4  12    0.07    0.94
   2  -4 -12    4.03    1.94
   2  -4 -12    4.77    1.70
  -2   4  12    5.71    1.76
  -2   4  12    4.97    1.09
  -2   4  12    3.99    1.73
   1  -4 -12   12.01    2.35
   1  -4 -12   13.63    2.82
  -1   4  12   15.16    2.82
  -1   4  12   12.96    2.13
   0  -4 -12    2.54    1.43
   0  -4 -12    2.66    1.71
   0   4  12   -0.25    0.91
   4  -5 -12    0.52    1.41
   4  -5 -12   -0.53    1.27
  -4   5  12    1.18    1.04
  -4   5  12   -0.46    1.49
  -4   5  12    1.31    1.21
   3  -5 -12    2.66    1.58
   3  -5 -12    0.98    1.33
   2  -5 -12   -0.40    1.24
   2  -5 -12    2.68    1.53
  -2   5  12    0.41    1.20
   2   8 -13   -0.13    1.30
   2   8 -13    2.19    1.35
   2   8 -13    0.83    2.02
   2   8 -13    2.40    1.78
  -2  -8  13    2.62    1.57
  -2  -8  13   -0.06    1.12
  -2  -8  13    1.57    1.34
   1   8 -13    1.48    1.73
   1   8 -13   -1.17    1.31
   1   8 -13   -0.29    0.95
   1   8 -13    0.83    1.16
  -1  -8  13    1.01    1.12
  -1  -8  13    1.07    1.01
  -1  -8  13    0.03    1.09
   0   8 -13    2.68    1.74
   0   8 -13    5.66    1.53
   0   8 -13    2.61    1.32
   0  -8  13    3.27    1.22
   0  -8  13    4.29    1.69
   3   7 -13    1.93    1.72
   3   7 -13   -0.19    1.20
   3   7 -13    1.02    1.66
  -3  -7  13    1.70    1.18
  -3  -7  13   -0.22    1.06
   2   7 -13   -0.28    1.50
   2   7 -13    0.02    0.92
   2   7 -13    1.79    1.09
  -2  -7  13    3.06    1.31
  -2  -7  13   -0.60    0.82
   1   7 -13    2.03    1.10
   1   7 -13    3.14    1.51
   1   7 -13    2.73    1.27
  -1  -7  13    3.10    1.12
  -1  -7  13    3.69    1.70
  -1  -7  13    3.47    1.36
   0   7 -13    5.42    1.68
   0   7 -13   10.05    1.81
   0   7 -13    7.32    2.22
   0  -7  13    8.49    2.08
   0  -7  13    4.96    1.46
   0  -7  13    7.82    1.72
  -1   7 -13   10.07    1.95
  -1   7 -13    5.79    1.36
  -1   7 -13    6.99    2.28
   1  -7  13    5.84    1.74
   1  -7  13    6.68    2.28
  -2   7 -13    0.44    1.55
  -2   7 -13    0.62    0.94
  -2   7 -13    0.36    1.43
   2  -7  13   -1.02    1.03
   2  -7  13   -0.27    1.08
   2  -7  13    0.10    1.04
   5   6 -13    4.20    2.30
  -5  -6  13   -1.21    1.12
  -5  -6  13    1.04    1.22
   4   6 -13    0.14    1.37
   4   6 -13   -0.78    1.03
   4   6 -13   -0.92    1.41
  -4  -6  13    1.71    1.32
  -4  -6  13   -0.89    0.93
   3   6 -13   -1.92    1.18
   3   6 -13   -0.97    0.99
   3   6 -13   -0.77    1.28
  -3  -6  13   -0.87    1.09
  -3  -6  13   -1.07    0.61
   2   6 -13   -0.26    0.90
   2   6 -13   -2.11    1.37
  -2  -6  13   -1.57    0.70
  -2  -6  13    1.25    1.11
  -2  -6  13    1.56    1.07
   1   6 -13    4.40    1.71
   1   6 -13    2.04    1.26
   1   6 -13    2.14    0.97
  -1  -6  13    2.73    1.27
  -1  -6  13    1.34    1.28
  -1  -6  13   -0.04    0.94
   0   6 -13   -0.49    1.03
   0   6 -13    2.35    0.99
   0   6 -13   -1.16    1.42
   0  -6  13    0.23    1.07
   0  -6  13    1.80    1.31
   0  -6  13   -0.62    0.87
  -1   6 -13   -0.84    0.84
  -1   6 -13   -0.50    1.15
  -1   6 -13    1.77    1.12
   1  -6  13   -2.05    0.94
   1  -6  13    0.12    0.89
  -2   6 -13    0.95    0.93
  -2   6 -13    4.19    1.71
  -2   6 -13    2.56    1.23
   2  -6  13    1.11    1.39
   2  -6  13    5.26    1.50
   2  -6  13    3.77    2.38
   5   5 -13    4.40    1.05
   5   5 -13    5.66    2.41
   5   5 -13    9.55    1.96
   5   5 -13    6.86    2.02
  -5  -5  13    8.35    1.86
  -5  -5  13    9.00    1.94
   4   5 -13    1.53    1.95
   4   5 -13    1.82    1.04
   4   5 -13   -0.12    1.37
  -4  -5  13    0.46    0.97
  -4  -5  13    2.09    1.35
   3   5 -13    1.75    1.27
   3   5 -13   -0.34    1.27
   3   5 -13    3.34    1.53
   3   5 -13    0.44    0.85
  -3  -5  13    1.95    1.13
  -3  -5  13   -0.14    1.18
   2   5 -13    7.33    1.74
   2   5 -13    5.12    1.84
  -2  -5  13    5.02    1.13
  -2  -5  13    6.33    1.66
  -2  -5  13    5.44    1.64
   1   5 -13    6.22    1.94
   1   5 -13    3.92    1.11
   1   5 -13    4.67    1.57
  -1  -5  13    6.04    1.66
  -1  -5  13    4.29    1.54
  -1  -5  13    5.71    1.44
   0   5 -13    3.79    1.71
   0   5 -13    6.34    1.85
   0   5 -13    5.56    1.63
   0  -5  13    5.57    1.51
   0  -5  13    6.61    1.67
  -1   5 -13    3.66    1.51
  -1   5 -13    1.57    1.16
   1  -5  13    2.92    1.14
   1  -5  13    4.40    1.31
   1  -5  13    3.65    1.59
  -2   5 -13    1.60    0.70
  -2   5 -13    2.89    1.58
  -2   5 -13    2.63    1.62
   2  -5  13   -0.50    1.26
   2  -5  13    1.11    1.27
   2  -5  13    0.66    1.07
  -3   5 -13    2.05    1.43
   3  -5  13   -0.11    1.32
   3  -5  13    3.31    1.63
   3  -5  13    1.90    1.18
   6   4 -13    6.72    1.59
   6   4 -13    5.26    1.87
   6   4 -13    5.95    2.69
  -6  -4  13    7.23    1.62
  -6  -4  13   12.15    2.51
  -6  -4  13    6.45    1.88
   5   4 -13    3.55    1.61
   5   4 -13    5.28    2.14
   5   4 -13    2.65    1.52
  -5  -4  13    7.14    1.70
   4   4 -13   -0.68    1.48
   4   4 -13    2.77    1.57
   4   4 -13    0.31    0.90
   4   4 -13    0.54    0.76
  -4  -4  13   -0.16    1.00
  -4  -4  13    0.29    0.96
   3   4 -13    3.36    1.57
   3   4 -13    6.76    1.65
   3   4 -13    2.25    2.00
  -3  -4  13    4.30    1.50
  -3  -4  13    4.39    1.42
   2   4 -13    7.43    1.96
   2   4 -13    8.47    1.90
  -2  -4  13    5.81    1.83
  -2  -4  13    9.06    1.77
  -2  -4  13    7.37    1.34
   1   4 -13    0.83    0.90
   1   4 -13   -0.95    0.89
   1   4 -13   -1.10    1.03
  -1  -4  13   -0.15    0.82
  -1  -4  13   -0.21    1.00
  -1  -4  13    0.01    0.84
   0   4 -13    3.25    1.41
   0   4 -13    7.29    1.87
   0  -4  13    2.53    1.25
   0  -4  13    3.24    1.19
   0  -4  13    4.14    1.52
  -1   4 -13    0.72    1.41
   1  -4  13   -0.37    1.09
   1  -4  13    0.29    0.71
   1  -4  13   -0.63    0.86
  -2   4 -13   -0.34    1.01
  -2   4 -13    0.62    1.29
   2  -4  13   -1.63    1.02
   2  -4  13    0.62    1.23
   2  -4  13   -0.03    0.88
  -3   4 -13    0.07    1.16
  -3   4 -13   -0.19    1.57
   3  -4  13    0.91    1.30
   3  -4  13    1.11    1.15
   3  -4  13    0.72    1.63
   6   3 -13   -1.69    0.88
   6   3 -13   -0.25    1.38
   6   3 -13   -0.42    1.50
   6   3 -13   -1.38    1.12
  -6  -3  13   -0.80    0.78
  -6  -3  13   -1.10    1.04
  -6  -3  13   -0.83    0.96
   5   3 -13    7.34    1.71
   5   3 -13    8.51    2.02
   5   3 -13   13.11    2.79
   5   3 -13   11.54    1.85
  -5  -3  13   10.15    1.89
  -5  -3  13    8.04    1.84
  -5  -3  13    8.89    1.83
   4   3 -13    3.17    1.64
   4   3 -13    1.98    1.62
   4   3 -13    2.62    1.59
  -4  -3  13    2.64    1.22
  -4  -3  13    2.48    1.16
   3   3 -13   -1.12    0.81
   3   3 -13   -1.40    0.93
  -3  -3  13   -1.25    0.84
  -3  -3  13    0.45    0.50
  -3  -3  13   -0.39    0.98
   2   3 -13    0.04    1.11
   2   3 -13    1.32    1.05
  -2  -3  13   -0.52    0.96
  -2  -3  13   -0.14    0.73
  -2  -3  13    0.53    0.73
   1   3 -13    1.05    1.27
   1   3 -13    1.18    0.95
  -1  -3  13   -0.64    0.75
  -1  -3  13    2.08    1.11
  -1  -3  13    1.71    0.92
   0   3 -13   20.81    3.12
   0  -3  13   23.25    3.15
   0  -3  13   22.59    3.48
   0  -3  13   20.28    2.78
  -1   3 -13   17.11    2.88
  -1   3 -13   15.30    2.81
   1  -3  13   17.67    2.42
   1  -3  13   15.66    2.62
   1  -3  13   17.49    2.77
  -2   3 -13   -2.19    0.90
  -2   3 -13    2.64    1.61
   2  -3  13   -0.42    0.89
   2  -3  13   -2.09    1.17
   2  -3  13    2.73    1.54
  -3   3 -13    2.06    1.50
  -3   3 -13   -1.32    1.13
   3  -3  13   -0.16    1.29
   3  -3  13   -1.44    0.85
   3  -3  13   -0.39    0.89
   3  -3  13    0.01    1.42
   6   2 -13    7.74    2.58
   6   2 -13    9.32    1.97
   6   2 -13    5.94    2.66
   6   2 -13    7.88    2.16
  -6  -2  13    5.97    1.57
  -6  -2  13   11.24    2.14
  -6  -2  13    8.83    1.90
   5   2 -13   21.92    3.55
   5   2 -13   22.81    3.25
   5   2 -13   26.79    3.37
  -5  -2  13   22.41    2.99
  -5  -2  13   21.61    2.94
  -5  -2  13   19.58    3.09
   4   2 -13    5.77    1.65
   4   2 -13    6.31    1.73
  -4  -2  13    7.59    1.48
  -4  -2  13    4.35    1.36
   3   2 -13    1.10    1.30
  -3  -2  13    0.93    1.11
  -3  -2  13    1.13    0.87
   2   2 -13    3.18    1.49
   2   2 -13    2.87    1.11
  -2  -2  13    2.72    1.67
  -2  -2  13    2.40    1.30
  -2  -2  13    2.18    1.09
   1   2 -13   -0.33    0.87
  -1  -2  13   -0.63    1.07
  -1  -2  13   -0.60    0.75
  -1  -2  13    0.57    0.88
   0   2 -13    1.20    1.08
   0   2 -13   -1.53    1.13
   0  -2  13    2.34    1.07
   0  -2  13   -0.03    0.90
   0  -2  13    0.17    0.93
  -1   2 -13   -0.05    1.12
  -1   2 -13    3.92    1.51
   1  -2  13    1.49    0.84
   1  -2  13   -0.47    0.86
   1  -2  13    0.38    1.19
  -2   2 -13    7.67    2.17
  -2   2 -13    6.75    2.04
   2  -2  13    6.84    2.07
   2  -2  13    6.17    1.79
   2  -2  13    6.45    1.34
   2  -2  13    5.62    1.41
  -3   2 -13    6.59    2.06
  -3   2 -13    2.69    1.83
   3  -2  13    1.74    0.97
   3  -2  13    4.85    2.05
   3  -2  13    4.87    1.90
   3  -2  13    2.91    1.22
   6   1 -13    1.69    1.57
   6   1 -13    0.93    1.39
   6   1 -13   -0.56    1.22
  -6  -1  13    0.82    1.07
  -6  -1  13   -0.62    0.84
  -6  -1  13   -0.33    0.79
   5   1 -13    0.35    1.38
   5   1 -13    0.29    1.30
   5   1 -13    1.33    1.43
  -5  -1  13   -1.38    1.01
  -5  -1  13    0.56    0.89
  -5  -1  13    1.22    1.11
   4   1 -13    0.42    1.25
   4   1 -13    1.68    1.48
  -4  -1  13    1.82    1.15
  -4  -1  13    1.66    1.04
  -4  -1  13    1.47    1.06
   3   1 -13   -0.98    1.81
   3   1 -13    0.19    0.95
  -3  -1  13   -1.19    0.67
  -3  -1  13    0.88    0.85
  -3  -1  13   -1.28    0.57
   2   1 -13    8.38    1.98
   2   1 -13    5.19    1.65
  -2  -1  13    8.16    1.77
  -2  -1  13    5.99    1.11
  -2  -1  13    6.63    1.71
  -2  -1  13    5.92    1.32
   1   1 -13   -0.66    1.02
   1   1 -13   -0.90    0.86
  -1  -1  13    0.25    0.97
  -1  -1  13   -0.40    0.76
  -1  -1  13    0.51    1.13
   0   1 -13   37.43    3.40
   0   1 -13   27.79    3.81
   0  -1  13   28.65    2.90
   0  -1  13   29.18    2.87
   0  -1  13   25.93    3.08
  -1   1 -13   19.31    2.90
  -1   1 -13   17.79    3.12
   1  -1  13   20.38    2.64
   1  -1  13   24.76    3.87
  -2   1 -13   10.37    2.14
  -2   1 -13    4.03    1.62
   2  -1  13    5.24    1.22
   2  -1  13    3.87    1.57
   2  -1  13    7.76    2.17
   2  -1  13    5.38    1.43
   6   0 -13    1.52    1.36
   6   0 -13    3.03    1.55
   6   0 -13    0.52    1.25
  -6   0  13    2.44    1.18
  -6   0  13   -0.15    0.97
  -6   0  13    1.19    1.40
   5   0 -13   12.82    2.54
   5   0 -13   15.09    2.88
   5   0 -13    9.69    2.61
  -5   0  13   10.67    2.24
  -5   0  13   11.11    1.83
  -5   0  13   14.61    2.43
   4   0 -13    3.57    1.45
   4   0 -13    2.14    1.45
  -4   0  13    2.66    1.44
  -4   0  13    4.67    1.31
  -4   0  13    3.45    1.35
   3   0 -13   -0.45    1.14
   3   0 -13   -2.46    0.88
  -3   0  13    0.90    0.88
  -3   0  13    0.61    0.97
  -3   0  13   -1.66    0.91
  -3   0  13    0.09    0.75
   2   0 -13   -1.25    1.01
   2   0 -13    1.42    1.33
  -2   0  13    0.23    0.61
  -2   0  13   -0.18    0.70
  -2   0  13   -0.33    0.94
  -2   0  13   -0.10    0.56
  -2   0  13    0.89    1.08
   1   0 -13    2.39    1.26
   1   0 -13    0.06    1.08
  -1   0  13    0.18    0.72
  -1   0  13   -0.56    1.14
  -1   0  13    0.01    0.85
  -1   0  13   -0.36    0.57
   0   0 -13    0.04    1.24
   0   0 -13    1.48    1.16
   0   0  13    1.17    1.08
   0   0  13   -0.23    0.82
  -1   0 -13    1.08    1.41
  -1   0 -13    0.05    1.10
   1   0  13    1.97    1.10
   1   0  13    0.87    1.34
   1   0  13    1.35    1.34
   1   0  13    0.10    1.06
  -2   0 -13    2.56    1.17
  -2   0 -13    0.82    1.67
   2   0  13    1.52    1.78
   2   0  13    0.16    0.95
   2   0  13   -1.28    1.10
   6  -1 -13    1.92    1.28
   6  -1 -13    0.16    1.47
   6  -1 -13    0.90    1.52
  -6   1  13   -1.64    0.76
  -6   1  13   -0.01    1.23
  -6   1  13    0.93    0.94
   5  -1 -13    0.39    1.13
   5  -1 -13    1.57    1.38
   5  -1 -13    2.46    1.50
  -5   1  13    0.91    0.98
  -5   1  13    1.56    1.00
   4  -1 -13    3.77    1.44
   4  -1 -13    2.11    1.27
  -4   1  13    4.39    1.78
  -4   1  13    2.62    1.03
  -4   1  13    1.48    1.15
   3  -1 -13   -0.36    1.22
  -3   1  13    2.04    1.28
  -3   1  13   -0.70    0.71
   2  -1 -13    0.62    1.12
   2  -1 -13    2.92    1.27
  -2   1  13    1.65    0.87
  -2   1  13    1.96    1.48
  -2   1  13   -0.08    1.12
  -2   1  13    0.66    0.56
   1  -1 -13    2.82    1.34
   1  -1 -13    0.88    1.46
  -1   1  13    3.18    1.32
  -1   1  13    0.86    1.23
  -1   1  13    2.27    1.49
   0  -1 -13   11.80    2.61
   0  -1 -13   10.88    2.30
   0   1  13   16.47    2.54
   0   1  13   11.67    2.10
   0   1  13   10.78    2.36
  -1  -1 -13    4.21    1.48
  -1  -1 -13    0.16    1.35
   1   1  13    0.28    1.43
   1   1  13    2.56    1.08
   1   1  13    0.77    1.52
   6  -2 -13    2.52    1.39
   6  -2 -13    2.50    1.74
   6  -2 -13    4.81    2.01
  -6   2  13   -0.38    1.42
  -6   2  13    0.85    1.08
   5  -2 -13    3.99    1.59
   5  -2 -13    6.41    1.94
   5  -2 -13    6.31    2.14
  -5   2  13    2.71    1.65
  -5   2  13    3.86    1.15
   4  -2 -13    2.72    1.29
   4  -2 -13   -0.35    1.06
  -4   2  13   -0.31    0.90
  -4   2  13    0.19    1.36
   3  -2 -13    2.59    1.42
   3  -2 -13    2.58    1.42
  -3   2  13    2.70    0.74
  -3   2  13    3.66    1.62
   2  -2 -13    0.95    1.11
   2  -2 -13    1.36    1.08
  -2   2  13   -0.44    0.95
  -2   2  13    1.61    1.46
   1  -2 -13    2.34    1.13
   1  -2 -13   -0.64    1.22
  -1   2  13   -0.55    1.02
  -1   2  13   -1.21    1.31
  -1   2  13   -0.14    1.06
   0  -2 -13    1.34    1.63
   0  -2 -13    1.08    1.32
   0   2  13   -0.33    1.10
   0   2  13    1.54    1.01
   0   2  13    0.15    1.32
  -1  -2 -13    2.33    1.42
  -1  -2 -13    0.41    1.55
   1   2  13    1.82    1.37
   1   2  13    1.36    1.06
   5  -3 -13    0.28    1.46
   5  -3 -13   -0.42    1.41
   5  -3 -13    2.48    1.47
  -5   3  13    0.10    1.52
  -5   3  13   -0.68    0.91
   4  -3 -13    2.04    1.64
   4  -3 -13    1.18    1.26
  -4   3  13   -0.31    1.26
  -4   3  13   -0.78    0.77
  -4   3  13   -0.24    1.11
   3  -3 -13   -2.61    0.99
   3  -3 -13   -2.18    0.98
  -3   3  13    2.14    1.18
  -3   3  13   -1.15    0.79
  -3   3  13   -1.12    1.21
   2  -3 -13   -1.18    1.17
   2  -3 -13   -1.09    1.08
  -2   3  13    2.23    1.46
  -2   3  13    0.27    1.10
   1  -3 -13    1.45    1.64
   1  -3 -13   -0.03    1.12
  -1   3  13    2.90    1.74
  -1   3  13    2.02    1.25
   1   7 -14   -0.10    1.19
   1   7 -14   -0.11    0.93
   1   7 -14    0.28    1.66
  -1  -7  14    0.77    1.50
  -1  -7  14    0.66    1.09
  -1  -7  14    0.49    1.00
   3   6 -14    0.90    1.69
   3   6 -14    0.09    1.32
   3   6 -14    1.30    2.06
  -3  -6  14    1.09    1.27
  -3  -6  14   -0.47    0.94
   2   6 -14    3.39    1.60
   2   6 -14    3.78    1.81
  -2  -6  14    5.60    1.85
  -2  -6  14    3.89    1.55
   1   6 -14    6.51    1.84
   1   6 -14    5.83    2.00
  -1  -6  14    4.94    1.38
  -1  -6  14    5.81    1.64
  -1  -6  14   13.20    2.44
   0   6 -14   -0.69    1.44
   0   6 -14   -0.82    1.39
   0  -6  14    1.18    1.01
   0  -6  14   -0.66    0.95
   0  -6  14   -0.38    1.16
  -1   6 -14    2.24    1.68
  -1   6 -14    5.92    1.99
   1  -6  14    6.36    1.64
   1  -6  14    5.98    1.44
   1  -6  14    3.81    1.55
   4   5 -14    4.24    1.99
   4   5 -14    6.25    1.77
  -4  -5  14    3.68    1.49
  -4  -5  14    9.83    2.27
   3   5 -14    0.65    1.38
   3   5 -14    1.32    1.67
   3   5 -14   -0.04    1.01
  -3  -5  14    1.07    1.27
  -3  -5  14   -0.31    0.86
   2   5 -14   -0.24    1.30
   2   5 -14    0.83    1.19
  -2  -5  14    0.47    0.81
  -2  -5  14    0.71    0.94
  -2  -5  14    0.87    1.32
   1   5 -14    0.22    1.39
  -1  -5  14    4.07    1.61
  -1  -5  14    2.67    1.14
   0   5 -14    0.51    1.09
   0   5 -14   -1.66    1.20
   0  -5  14    3.19    1.28
   0  -5  14    4.87    1.54
   0  -5  14    0.68    1.03
  -1   5 -14    3.60    1.64
  -1   5 -14    1.77    1.70
   1  -5  14    0.69    0.97
   1  -5  14   -0.14    1.37
   1  -5  14    0.36    1.19
   5   4 -14    2.32    1.60
   5   4 -14    3.48    1.95
  -5  -4  14    5.17    1.63
  -5  -4  14    2.34    1.26
  -5  -4  14    4.53    1.50
   4   4 -14    2.19    1.53
   4   4 -14   -0.26    1.40
   4   4 -14    2.50    1.33
  -4  -4  14    0.70    1.21
  -4  -4  14    1.60    1.17
   3   4 -14    3.73    1.50
   3   4 -14    1.98    1.44
  -3  -4  14    2.04    1.06
  -3  -4  14    1.82    1.41
   2   4 -14   -0.03    1.51
   2   4 -14    0.71    1.16
  -2  -4  14    2.84    1.26
  -2  -4  14    3.29    1.30
   1   4 -14    7.44    1.79
   1   4 -14    5.47    1.95
  -1  -4  14    8.62    1.74
  -1  -4  14    8.49    2.44
  -1  -4  14    6.83    1.79
   0   4 -14    0.51    1.04
   0   4 -14   -0.54    1.16
   0  -4  14    1.19    1.34
   0  -4  14    1.20    0.99
   0  -4  14    0.47    0.98
  -1   4 -14    5.07    1.73
  -1   4 -14    4.20    1.54
   1  -4  14    3.37    1.45
   1  -4  14    5.92    1.57
   1  -4  14    2.21    1.45
  -2   4 -14    3.64    1.86
  -2   4 -14   -0.13    1.28
   2  -4  14    0.36    0.93
   2  -4  14    0.06    1.07
   2  -4  14   -0.40    1.32
   5   3 -14    4.45    1.49
   5   3 -14    9.42    2.53
   5   3 -14    1.78    1.82
  -5  -3  14    4.53    1.59
  -5  -3  14    3.64    1.76
  -5  -3  14    4.66    1.60
   4   3 -14    1.60    1.63
   4   3 -14   -1.22    1.12
   4   3 -14    5.02    1.56
  -4  -3  14    3.51    1.55
  -4  -3  14    1.57    1.20
   3   3 -14   -0.94    1.33
   3   3 -14   -0.01    0.88
  -3  -3  14   -0.92    0.84
  -3  -3  14    0.33    0.88
   2   3 -14    1.13    1.30
   2   3 -14   -0.22    1.14
  -2  -3  14    0.55    0.70
  -2  -3  14   -0.53    0.83
   1   3 -14    0.88    1.34
   1   3 -14   -0.13    1.22
  -1  -3  14    0.37    0.88
  -1  -3  14   -0.31    0.90
  -1  -3  14   -0.24    0.68
   0   3 -14    7.21    1.94
   0   3 -14    8.91    2.37
   0  -3  14    6.09    1.65
   0  -3  14    5.93    2.02
   0  -3  14    4.21    1.37
  -1   3 -14    5.00    1.92
  -1   3 -14    6.49    2.08
   1  -3  14    6.81    1.78
   1  -3  14    9.33    2.08
   1  -3  14   11.51    2.31
  -2   3 -14    5.36    2.04
  -2   3 -14    5.86    1.97
   2  -3  14    7.30    1.99
   2  -3  14    5.90    1.91
   2  -3  14    2.90    1.23
   5   2 -14    0.18    1.39
   5   2 -14    2.63    1.48
   5   2 -14   -0.83    1.05
  -5  -2  14    0.64    1.05
  -5  -2  14    0.44    1.18
  -5  -2  14    0.13    1.36
   4   2 -14   -1.09    1.08
   4   2 -14    1.90    1.38
  -4  -2  14    3.22    1.24
  -4  -2  14    1.39    1.03
  -4  -2  14   -0.05    1.11
   3   2 -14   12.79    2.53
   3   2 -14   15.15    2.62
  -3  -2  14   15.31    2.49
   2   2 -14   -1.77    0.81
   2   2 -14    0.37    1.05
  -2  -2  14   -0.04    0.89
  -2  -2  14    0.68    0.87
  -2  -2  14   -0.22    1.16
   1   2 -14    3.81    1.36
   1   2 -14    2.54    1.50
  -1  -2  14    4.69    1.42
  -1  -2  14    2.78    1.17
  -1  -2  14    1.75    1.42
   0   2 -14   -1.52    1.14
   0   2 -14    0.26    1.45
   0  -2  14   -0.34    0.74
   0  -2  14   -1.23    1.20
   0  -2  14   -1.22    1.01
  -1   2 -14   -0.31    1.16
  -1   2 -14    1.37    1.23
   1  -2  14    0.60    1.30
   1  -2  14   -1.28    1.13
   1  -2  14   -0.67    0.76
   5   1 -14    2.75    1.67
   5   1 -14    2.08    1.62
  -5  -1  14    3.83    1.46
  -5  -1  14    2.88    1.49
  -5  -1  14   -0.68    1.00
   4   1 -14    2.72    1.58
   4   1 -14    0.04    1.15
  -4  -1  14    0.56    0.97
  -4  -1  14   -0.10    0.54
  -4  -1  14    2.55    1.46
   3   1 -14   -0.84    1.12
   3   1 -14    0.06    1.18
  -3  -1  14    0.09    0.78
  -3  -1  14    0.03    0.85
  -3  -1  14    0.14    0.96
   2   1 -14    2.25    1.30
   2   1 -14    0.17    1.43
  -2  -1  14    1.38    1.33
  -2  -1  14   -0.46    0.94
  -2  -1  14   -0.41    0.74
  -2  -1  14    0.55    0.92
   1   1 -14   -1.36    0.90
   1   1 -14   -0.37    1.18
  -1  -1  14   -0.34    0.92
  -1  -1  14   -1.27    0.60
  -1  -1  14   -0.38    1.13
   0   1 -14    1.55    1.33
   0   1 -14    3.03    1.82
   0  -1  14    0.77    1.21
   0  -1  14    1.79    1.07
  -1   1 -14    5.29    1.93
  -1   1 -14    4.71    1.66
   1  -1  14    3.51    1.86
   1  -1  14    4.12    1.27
   1  -1  14    1.84    1.39
   1  -1  14    4.39    1.38
   5   0 -14    1.51    1.63
   5   0 -14    2.82    1.64
  -5   0  14    4.51    1.76
  -5   0  14    6.67    1.72
  -5   0  14    2.13    1.25
   4   0 -14    0.53    1.26
  -4   0  14    1.52    1.04
  -4   0  14    1.80    0.96
   3   0 -14    3.96    1.76
   3   0 -14    4.37    1.70
  -3   0  14    3.35    1.48
  -3   0  14    1.42    1.05
  -3   0  14    1.67    0.92
   2   0 -14    2.50    1.46
   2   0 -14    2.83    1.67
  -2   0  14    5.91    1.73
  -2   0  14    4.53    1.20
  -2   0  14    4.94    1.32
   1   0 -14    1.72    1.28
   1   0 -14    3.86    1.58
  -1   0  14    1.87    1.50
  -1   0  14    0.69    0.98
  -1   0  14    2.44    1.23
   0   0 -14    2.90    1.72
   0   0 -14    2.11    1.79
   0   0  14   -0.20    1.45
   0   0  14    1.73    1.37
   0   0  14    2.03    1.51
   0   0  14    1.02    1.12
  -1   0 -14    3.25    1.73
   1   0  14   -0.30    2.01
   1   0  14    2.30    1.31
   1   0  14    3.09    1.54
   5  -1 -14    1.91    1.80
   5  -1 -14    2.86    1.70
   5  -1 -14    0.72    1.53
  -5   1  14    2.71    1.10
  -5   1  14    4.22    1.61
  -5   1  14    2.42    1.35
   4  -1 -14    6.93    1.95
   4  -1 -14    3.47    1.67
  -4   1  14    2.88    1.22
  -4   1  14    3.17    1.05
  -4   1  14    3.79    1.81
   3  -1 -14    1.37    1.15
   3  -1 -14    0.78    1.58
  -3   1  14    0.30    1.08
  -3   1  14    1.48    1.55
   2  -1 -14    0.42    1.38
   2  -1 -14    2.07    1.35
  -2   1  14    0.19    1.12
  -2   1  14   -1.14    1.17
  -2   1  14   -0.89    0.63
   1  -1 -14   -1.23    1.24
   1  -1 -14    0.35    1.31
  -1   1  14   -1.40    0.97
  -1   1  14    1.21    1.67
  -1   1  14    1.28    1.06
   0  -1 -14    2.36    1.70
   0  -1 -14    0.17    1.09
   0   1  14    0.27    1.85
   0   1  14    0.53    1.24
   0   1  14    3.00    1.46
   4  -2 -14   -0.24    1.09
   4  -2 -14   -1.21    1.26
  -4   2  14    0.71    1.69
   3  -2 -14    1.12    1.52
   3  -2 -14    2.36    1.71
  -3   2  14    3.67    1.86
   2  -2 -14   10.26    2.55
   2  -2 -14    7.37    2.19
  -2   2  14    9.21    2.11
  -2   2  14   12.67    2.35
   3   4 -15    1.15    1.35
   3   4 -15    0.68    1.60
  -3  -4  15   -0.39    0.95
  -3  -4  15   -0.31    1.00
   2   4 -15   -0.65    1.44
   2   4 -15   -1.25    1.17
  -2  -4  15    0.71    1.12
  -2  -4  15   -0.97    1.23
  -2  -4  15    0.04    1.01
   1   4 -15    5.00    1.97
   1   4 -15    6.14    2.01
  -1  -4  15    3.24    1.38
  -1  -4  15    3.20    1.18
  -1  -4  15    7.04    2.04
   3   3 -15    4.50    1.77
   3   3 -15    2.99    2.08
  -3  -3  15    0.70    1.51
  -3  -3  15    1.80    1.42
   2   3 -15   10.31    2.14
   2   3 -15    8.08    2.16
  -2  -3  15   10.98    2.03
  -2  -3  15    4.44    1.86
   1   3 -15    1.30    1.18
   1   3 -15   -0.26    1.29
  -1  -3  15    0.71    1.02
  -1  -3  15   -0.06    1.06
   4   2 -15   -3.88    1.48
   4   2 -15    0.05    1.41
  -4  -2  15    0.41    1.25
  -4  -2  15    1.00    1.46
  -4  -2  15    0.61    1.05
   3   2 -15    4.40    1.93
   3   2 -15    1.20    1.33
  -3  -2  15    1.31    1.23
  -3  -2  15    1.78    1.08
  -3  -2  15    2.40    1.78
   2   2 -15    6.37    1.91
   2   2 -15    3.70    1.91
  -2  -2  15    3.53    1.27
  -2  -2  15    4.34    1.38
   1   2 -15   -0.36    1.47
   1   2 -15   -2.19    1.14
  -1  -2  15   -0.60    0.89
  -1  -2  15   -1.72    1.32
  -1  -2  15    1.03    1.22
   3   1 -15   -0.73    1.51
   3   1 -15    2.82    1.93
  -3  -1  15    0.54    1.13
  -3  -1  15    3.87    1.27
  -3  -1  15    4.27    1.70
   2   1 -15    6.33    2.10
   2   1 -15    4.26    1.91
  -2  -1  15    5.06    1.42
  -2  -1  15    5.98    1.62
  -2  -1  15    4.51    2.09
  -2  -1  15    4.50    1.32
   1   1 -15    3.17    1.75
   1   1 -15    1.57    1.79
  -1  -1  15    5.23    1.77
  -1  -1  15    0.50    1.29
  -1  -1  15    4.73    1.56
   0   0   0    0.00    0.00
;
_shelx_hkl_checksum              31979
_olex2_submission_special_instructions 'No special instructions were received'
_exptl_crystal_recrystallization_method 
'Re-crystallisation from solvent: DCM/pentane'
