

data_23mcd011_4
_audit_block_doi                 10.5517/ccdc.csd.cc2j6bwz
_database_code_depnum_ccdc_archive 'CCDC 2329801'
loop_
_citation_id
_citation_doi
_citation_year
1 10.1002/anie.202408258 2024
loop_
_audit_author_name
_audit_author_address
'Guillermo Zaragoza'
;Universidade de Santiago de Compostela
Spain
;
_audit_update_record             
;
2024-01-30 deposited with the CCDC.	2024-12-03 downloaded from the CCDC.
;
_audit_creation_date             2023-06-10
_audit_creation_method           
;
Olex2 1.5
(compiled 2023.03.06 svn.rbb2c1857 for OlexSys, GUI svn.r6748)
;
_shelx_SHELXL_version_number     2018/3
loop_
_audit_author_email
andy.arribas.domingo@gmail.com
_chemical_name_common            cis-8y
_chemical_name_systematic        
cis-(1s,4s)-4-(tert-butyl)-N,N-diethyl-1a'-methyl-1a',2',3',7b'-tetrahydrospiro[cyclohexane-1,1'-cyclopropa[g]indolizine]-7'-carboxamide
_chemical_formula_moiety         'C24 H38 N2 O'
_chemical_formula_sum            'C24 H38 N2 O'
_chemical_formula_weight         370.56
_chemical_melting_point          'Not measured'
loop_
_atom_type_symbol
_atom_type_description
_atom_type_scat_dispersion_real
_atom_type_scat_dispersion_imag
_atom_type_scat_source
C C 0.0033 0.0016 'International Tables Vol C Tables 4.2.6.8 and 6.1.1.4'
H H 0.0000 0.0000 'International Tables Vol C Tables 4.2.6.8 and 6.1.1.4'
N N 0.0061 0.0033 'International Tables Vol C Tables 4.2.6.8 and 6.1.1.4'
O O 0.0106 0.0060 'International Tables Vol C Tables 4.2.6.8 and 6.1.1.4'

_shelx_space_group_comment       
;
The symmetry employed for this shelxl refinement is uniquely defined
by the following loop, which should always be used as a source of
symmetry information in preference to the above space-group names.
They are only intended as comments.
;
_space_group_crystal_system      triclinic
_space_group_IT_number           2
_space_group_name_H-M_alt        'P -1'
_space_group_name_Hall           '-P 1'
loop_
_space_group_symop_operation_xyz
'x, y, z'
'-x, -y, -z'

_cell_length_a                   11.3073(10)
_cell_length_b                   13.0433(11)
_cell_length_c                   15.2971(13)
_cell_angle_alpha                92.369(3)
_cell_angle_beta                 93.245(3)
_cell_angle_gamma                90.601(3)
_cell_volume                     2250.4(3)
_cell_formula_units_Z            4
_cell_measurement_reflns_used    9944
_cell_measurement_temperature    293.15
_cell_measurement_theta_max      28,29
_cell_measurement_theta_min      2,31
_shelx_estimated_absorpt_T_max   0.992
_shelx_estimated_absorpt_T_min   0.988
_exptl_absorpt_coefficient_mu    0.066
_exptl_absorpt_correction_T_max  ?
_exptl_absorpt_correction_T_min  ?
_exptl_absorpt_correction_type   ?
_exptl_absorpt_process_details   
;
 TWINABS-2012/1 (Bruker,2012) was used for absorption correction.
 
For component 1:
 wR2(int) was 0.0956 before and 0.0730 after correction.
 
For component 2:
 wR2(int) was 0.1030 before and 0.0838 after correction.
 
For component 3:
 wR2(int) was 0.1630 before and 0.0809 after correction.
 The Ratio of minimum to maximum transmission is 0.74.

Final HKLF 4 output contains 111755 reflections, Rint = 0.1313
 (44141 with I > 3sig(I), Rint = 0.1190)
;
_exptl_absorpt_special_details   ?
_exptl_crystal_colour            colourless
_exptl_crystal_colour_primary    colourless
_exptl_crystal_density_diffrn    1.094
_exptl_crystal_density_meas      ?
_exptl_crystal_density_method    ?
_exptl_crystal_description       block
_exptl_crystal_F_000             816
_exptl_crystal_size_max          0.19
_exptl_crystal_size_mid          0.16
_exptl_crystal_size_min          0.12
_exptl_transmission_factor_max   ?
_exptl_transmission_factor_min   ?
_diffrn_reflns_av_R_equivalents  0.0
_diffrn_reflns_av_unetI/netI     0.0507
_diffrn_reflns_Laue_measured_fraction_full 0.999
_diffrn_reflns_Laue_measured_fraction_max 0.998
_diffrn_reflns_limit_h_max       ?
_diffrn_reflns_limit_h_min       ?
_diffrn_reflns_limit_k_max       ?
_diffrn_reflns_limit_k_min       ?
_diffrn_reflns_limit_l_max       ?
_diffrn_reflns_limit_l_min       ?
_diffrn_reflns_number            11146
_diffrn_reflns_point_group_measured_fraction_full 0.999
_diffrn_reflns_point_group_measured_fraction_max 0.998
_diffrn_reflns_theta_full        25.242
_diffrn_reflns_theta_max         28.282
_diffrn_reflns_theta_min         2.012
_diffrn_ambient_temperature      293.15
_diffrn_detector_area_resol_mean ?
_diffrn_measured_fraction_theta_full 0.999
_diffrn_measured_fraction_theta_max 0.998
_diffrn_measurement_device_type  'Bruker D8 VENTURE PHOTON III-14'
_diffrn_measurement_method       'omega and phi'
_diffrn_radiation_type           MoK\a
_diffrn_radiation_wavelength     0.71073
_diffrn_source                   'microfocus sealed tube'
_diffrn_source_current           1.4
_diffrn_source_power             0.07
_diffrn_source_voltage           50.0
_reflns_Friedel_coverage         0.000
_reflns_Friedel_fraction_full    .
_reflns_Friedel_fraction_max     .
_reflns_number_gt                9464
_reflns_number_total             11146
_reflns_special_details          
;
 Reflections were merged by SHELXL according to the crystal
 class for the calculation of statistics and refinement.
 
 _reflns_Friedel_fraction is defined as the number of unique
 Friedel pairs measured divided by the number that would be
 possible theoretically, ignoring centric projections and
 systematic absences.
;
_reflns_threshold_expression     'I > 2\s(I)'
_computing_cell_refinement       'SAINT V8.40B (?, 2016)'
_computing_data_collection       ?
_computing_data_reduction        'SAINT V8.40B (?, 2016)'
_computing_molecular_graphics    'Olex2 1.5 (Dolomanov et al., 2009)'
_computing_publication_material  'Olex2 1.5 (Dolomanov et al., 2009)'
_computing_structure_refinement  'SHELXL 2018/3 (Sheldrick, 2015)'
_computing_structure_solution    'SHELXT 2018/2 (Sheldrick, 2018)'
_refine_diff_density_max         0.516
_refine_diff_density_min         -0.588
_refine_diff_density_rms         0.121
_refine_ls_extinction_coef       0.0033(13)
_refine_ls_extinction_expression Fc^*^=kFc[1+0.001xFc^2^\l^3^/sin(2\q)]^-1/4^
_refine_ls_extinction_method     'SHELXL-2018/3 (Sheldrick 2018)'
_refine_ls_goodness_of_fit_ref   1.120
_refine_ls_hydrogen_treatment    constr
_refine_ls_matrix_type           full
_refine_ls_number_parameters     500
_refine_ls_number_reflns         11146
_refine_ls_number_restraints     0
_refine_ls_R_factor_all          0.1531
_refine_ls_R_factor_gt           0.1328
_refine_ls_restrained_S_all      1.120
_refine_ls_shift/su_max          0.000
_refine_ls_shift/su_mean         0.000
_refine_ls_structure_factor_coef Fsqd
_refine_ls_weighting_details     
'w=1/[\s^2^(Fo^2^)+(0.0824P)^2^+15.5556P] where P=(Fo^2^+2Fc^2^)/3'
_refine_ls_weighting_scheme      calc
_refine_ls_wR_factor_gt          0.3258
_refine_ls_wR_factor_ref         0.3376
_refine_special_details          ?
_olex2_refinement_description    
;
1. Fixed Uiso
 At 1.2 times of:
  All C(H) groups, All C(H,H) groups
 At 1.5 times of:
  All C(H,H,H) groups
2.a Ternary CH refined with riding coordinates:
 C4(H4), C1A(H1A), C1O(H1O), C1T(H1T)
2.b Secondary CH2 refined with riding coordinates:
 C3(H3A,H3B), C11(H11A,H11B), C15(H15A,H15B), C16(H16A,H16B), C1C(H1CA,H1CB),
 C1E(H1EA,H1EB), C1F(H1FA,H1FB), C1G(H1GA,H1GB), C1H(H1HA,H1HB), C1I(H1IA,H1IB),
  C1J(H1JA,H1JB), C1K(H1KA,H1KB), C1M(H1MA,H1MB), C1N(H1NA,H1NB), C1P(H1PA,
 H1PB), C1S(H1SA,H1SB)
2.c Aromatic/amide H refined with riding coordinates:
 C6(H6), C10(H10), C14(H14), C19(H19)
2.d Idealised Me refined as rotating group:
 C13(H13A,H13B,H13C), C1B(H1BA,H1BB,H1BC), C1L(H1LA,H1LB,H1LC), C1U(H1UA,H1UB,
 H1UC), C1V(H1VA,H1VB,H1VC), C1W(H1WA,H1WB,H1WC), C1X(H1XA,H1XB,H1XC), C1Y(H1YA,
 H1YB,H1YC), C1Z(H1ZA,H1ZB,H1ZC), C20(H20A,H20B,H20C), C21(H21A,H21B,H21C),
 C22(H22A,H22B,H22C)
;
_atom_sites_solution_hydrogens   geom
_atom_sites_solution_primary     dual
_atom_sites_solution_secondary   ?
loop_
_atom_site_label
_atom_site_type_symbol
_atom_site_fract_x
_atom_site_fract_y
_atom_site_fract_z
_atom_site_U_iso_or_equiv
_atom_site_adp_type
_atom_site_occupancy
_atom_site_site_symmetry_order
_atom_site_calc_flag
_atom_site_refinement_flags_posn
_atom_site_refinement_flags_adp
_atom_site_refinement_flags_occupancy
_atom_site_disorder_assembly
_atom_site_disorder_group
O1 O 0.8889(3) 1.1039(2) 0.0799(2) 0.0230(7) Uani 1 1 d . . . . .
O2 O 0.4514(3) 1.4003(2) 0.9081(2) 0.0237(7) Uani 1 1 d . . . . .
N N 0.2075(3) 1.1564(3) 0.9084(2) 0.0165(7) Uani 1 1 d . . . . .
N2 N 0.6490(3) 1.3439(3) 0.0963(2) 0.0164(7) Uani 1 1 d . . . . .
N3 N 1.0322(3) 1.2211(3) 0.1172(2) 0.0176(7) Uani 1 1 d . . . . .
N4 N 0.5774(3) 1.2835(3) 0.8578(2) 0.0182(7) Uani 1 1 d . . . . .
C1 C 0.9173(4) 1.1953(3) 0.0939(3) 0.0158(8) Uani 1 1 d . . . . .
C2 C 0.4745(4) 1.3092(3) 0.8940(3) 0.0162(8) Uani 1 1 d . . . . .
C3 C 0.6087(4) 1.1795(3) 0.8296(3) 0.0186(8) Uani 1 1 d . . . . .
H3A H 0.637733 1.180616 0.771157 0.022 Uiso 1 1 calc R U . . .
H3B H 0.538170 1.136194 0.826637 0.022 Uiso 1 1 calc R U . . .
C4 C 0.6597(3) 1.1710(3) 0.1556(3) 0.0148(7) Uani 1 1 d . . . . .
H4 H 0.653336 1.105572 0.121757 0.018 Uiso 1 1 calc R U . . .
C5 C 0.3868(4) 1.2285(3) 0.9116(3) 0.0157(8) Uani 1 1 d . . . . .
C6 C 0.3958(4) 1.1298(3) 0.9486(3) 0.0184(8) Uani 1 1 d . . . . .
H6 H 0.464918 1.099458 0.970313 0.022 Uiso 1 1 calc R U . . .
C7 C 0.7140(4) 1.2577(3) 0.1115(3) 0.0157(8) Uani 1 1 d . . . . .
C8 C 0.8268(4) 1.2757(3) 0.0860(3) 0.0173(8) Uani 1 1 d . . . . .
C9 C 0.2683(4) 1.2429(3) 0.8885(3) 0.0164(8) Uani 1 1 d . . . . .
C10 C 0.2838(4) 1.0881(3) 0.9463(3) 0.0177(8) Uani 1 1 d . . . . .
H10 H 0.263186 1.024622 0.966923 0.021 Uiso 1 1 calc R U . . .
C11 C 0.0550(4) 1.1825(3) 0.7934(3) 0.0200(8) Uani 1 1 d . . . . .
H11A H 0.099185 1.143354 0.751175 0.024 Uiso 1 1 calc R U . . .
H11B H -0.028695 1.174127 0.776625 0.024 Uiso 1 1 calc R U . . .
C12 C 0.6745(4) 1.1640(3) 0.2542(3) 0.0156(8) Uani 1 1 d . . . . .
C13 C 0.4503(4) 1.1238(3) 0.2049(3) 0.0206(8) Uani 1 1 d . . . . .
H13A H 0.476938 1.054744 0.195537 0.031 Uiso 1 1 calc R U . . .
H13B H 0.397378 1.141436 0.156678 0.031 Uiso 1 1 calc R U . . .
H13C H 0.409549 1.128875 0.258257 0.031 Uiso 1 1 calc R U . . .
C14 C 0.7168(4) 1.4155(3) 0.0596(3) 0.0190(8) Uani 1 1 d . . . . .
H14 H 0.692148 1.479941 0.042667 0.023 Uiso 1 1 calc R U . . .
C15 C 0.5278(4) 1.3540(3) 0.1226(3) 0.0178(8) Uani 1 1 d . . . . .
H15A H 0.473923 1.317199 0.080531 0.021 Uiso 1 1 calc R U . . .
H15B H 0.505870 1.425759 0.124692 0.021 Uiso 1 1 calc R U . . .
C16 C 1.1139(4) 1.1354(4) 0.1305(3) 0.0233(9) Uani 1 1 d . . . . .
H16A H 1.194520 1.158980 0.124183 0.028 Uiso 1 1 calc R U . . .
H16B H 1.095741 1.081492 0.086045 0.028 Uiso 1 1 calc R U . . .
C17 C 0.1997(4) 1.3318(3) 0.7460(3) 0.0182(8) Uani 1 1 d . . . . .
C18 C 0.5564(4) 1.1970(3) 0.2115(3) 0.0158(8) Uani 1 1 d . . . . .
C19 C 0.8281(4) 1.3759(3) 0.0518(3) 0.0206(9) Uani 1 1 d . . . . .
H19 H 0.892257 1.408281 0.028597 0.025 Uiso 1 1 calc R U . . .
C1A C 0.2044(4) 1.3265(3) 0.8450(3) 0.0161(8) Uani 1 1 d . . . . .
H1A H 0.203868 1.392522 0.878060 0.019 Uiso 1 1 calc R U . . .
C1B C -0.0144(4) 1.3663(4) 0.8014(3) 0.0239(9) Uani 1 1 d . . . . .
H1BA H -0.068691 1.356074 0.751182 0.036 Uiso 1 1 calc R U . . .
H1BB H 0.012677 1.436415 0.805559 0.036 Uiso 1 1 calc R U . . .
H1BC H -0.053663 1.350793 0.853399 0.036 Uiso 1 1 calc R U . . .
C1C C 0.0805(4) 1.1415(3) 0.8852(3) 0.0198(8) Uani 1 1 d . . . . .
H1CA H 0.034110 1.178255 0.927429 0.024 Uiso 1 1 calc R U . . .
H1CB H 0.059522 1.069156 0.885267 0.024 Uiso 1 1 calc R U . . .
C1D C 0.0902(4) 1.2964(3) 0.7922(3) 0.0182(8) Uani 1 1 d . . . . .
C1E C 0.6537(4) 1.0597(3) 0.3863(3) 0.0228(9) Uani 1 1 d . . . . .
H1EA H 0.665552 0.992045 0.409103 0.027 Uiso 1 1 calc R U . . .
H1EB H 0.570481 1.076027 0.389394 0.027 Uiso 1 1 calc R U . . .
C1F C 0.6867(4) 1.0583(3) 0.2903(3) 0.0195(8) Uani 1 1 d . . . . .
H1FA H 0.767640 1.035469 0.286279 0.023 Uiso 1 1 calc R U . . .
H1FB H 0.635223 1.010246 0.255712 0.023 Uiso 1 1 calc R U . . .
C1G C 0.5198(4) 1.3098(3) 0.2132(3) 0.0197(8) Uani 1 1 d . . . . .
H1GA H 0.439230 1.315357 0.231396 0.024 Uiso 1 1 calc R U . . .
H1GB H 0.571200 1.349006 0.255485 0.024 Uiso 1 1 calc R U . . .
C1H C 0.6542(4) 1.3675(4) 0.8345(3) 0.0257(10) Uani 1 1 d . . . . .
H1HA H 0.734271 1.342418 0.830457 0.031 Uiso 1 1 calc R U . . .
H1HB H 0.655651 1.420868 0.880655 0.031 Uiso 1 1 calc R U . . .
C1I C 1.0748(4) 1.3230(3) 0.1486(3) 0.0222(9) Uani 1 1 d . . . . .
H1IA H 1.120531 1.317129 0.203705 0.027 Uiso 1 1 calc R U . . .
H1IB H 1.007330 1.366087 0.159497 0.027 Uiso 1 1 calc R U . . .
C1J C 0.2037(4) 1.4364(3) 0.7084(3) 0.0221(9) Uani 1 1 d . . . . .
H1JA H 0.284657 1.462134 0.712304 0.026 Uiso 1 1 calc R U . . .
H1JB H 0.156359 1.483261 0.742311 0.026 Uiso 1 1 calc R U . . .
C1K C 0.7534(4) 1.2414(3) 0.3076(3) 0.0191(8) Uani 1 1 d . . . . .
H1KA H 0.744080 1.308862 0.283818 0.023 Uiso 1 1 calc R U . . .
H1KB H 0.835682 1.222105 0.304492 0.023 Uiso 1 1 calc R U . . .
C1L C 0.7028(4) 1.1335(4) 0.8911(3) 0.0272(10) Uani 1 1 d . . . . .
H1LA H 0.720078 1.065142 0.870198 0.041 Uiso 1 1 calc R U . . .
H1LB H 0.674093 1.131280 0.948880 0.041 Uiso 1 1 calc R U . . .
H1LC H 0.773610 1.174992 0.893004 0.041 Uiso 1 1 calc R U . . .
C1M C 0.7195(4) 1.2446(4) 0.4025(3) 0.0234(9) Uani 1 1 d . . . . .
H1MA H 0.638926 1.268737 0.405317 0.028 Uiso 1 1 calc R U . . .
H1MB H 0.771122 1.293088 0.436424 0.028 Uiso 1 1 calc R U . . .
C1N C 0.1560(4) 1.4324(3) 0.6118(3) 0.0230(9) Uani 1 1 d . . . . .
H1NA H 0.073114 1.411883 0.608424 0.028 Uiso 1 1 calc R U . . .
H1NB H 0.161787 1.500193 0.588547 0.028 Uiso 1 1 calc R U . . .
C1O C 0.7287(4) 1.1390(4) 0.4434(3) 0.0211(9) Uani 1 1 d . . . . .
H1O H 0.811421 1.118027 0.440286 0.025 Uiso 1 1 calc R U . . .
C1P C 0.2701(4) 1.2554(3) 0.6922(3) 0.0204(9) Uani 1 1 d . . . . .
H1PA H 0.352878 1.276155 0.695468 0.024 Uiso 1 1 calc R U . . .
H1PB H 0.264382 1.187997 0.716184 0.024 Uiso 1 1 calc R U . . .
C1Q C 0.7010(4) 1.1412(4) 0.5428(3) 0.0260(10) Uani 1 1 d . . . . .
C1R C 0.1885(4) 1.3544(4) 0.4556(3) 0.0262(10) Uani 1 1 d . . . . .
C1S C 0.2229(4) 1.2502(4) 0.5968(3) 0.0238(9) Uani 1 1 d . . . . .
H1SA H 0.142093 1.224114 0.593252 0.029 Uiso 1 1 calc R U . . .
H1SB H 0.270367 1.202912 0.563397 0.029 Uiso 1 1 calc R U . . .
C1T C 0.2260(4) 1.3563(4) 0.5563(3) 0.0227(9) Uani 1 1 d . . . . .
H1T H 0.308741 1.379911 0.561977 0.027 Uiso 1 1 calc R U . . .
C1U C 0.7910(5) 1.2119(5) 0.5964(3) 0.0350(12) Uani 1 1 d . . . . .
H1UA H 0.779743 1.281531 0.580127 0.052 Uiso 1 1 calc R U . . .
H1UB H 0.870010 1.191242 0.584741 0.052 Uiso 1 1 calc R U . . .
H1UC H 0.779240 1.206772 0.657762 0.052 Uiso 1 1 calc R U . . .
C1V C 1.1045(5) 1.0925(4) 0.2207(3) 0.0304(11) Uani 1 1 d . . . . .
H1VA H 1.119754 1.146279 0.264737 0.046 Uiso 1 1 calc R U . . .
H1VB H 1.161609 1.039201 0.228742 0.046 Uiso 1 1 calc R U . . .
H1VC H 1.026312 1.064760 0.225596 0.046 Uiso 1 1 calc R U . . .
C1W C 1.1517(5) 1.3743(4) 0.0832(4) 0.0345(12) Uani 1 1 d . . . . .
H1WA H 1.179682 1.439777 0.107478 0.052 Uiso 1 1 calc R U . . .
H1WB H 1.105508 1.383812 0.029602 0.052 Uiso 1 1 calc R U . . .
H1WC H 1.218048 1.331571 0.071569 0.052 Uiso 1 1 calc R U . . .
C1X C 0.2787(5) 1.2919(5) 0.4055(3) 0.0350(12) Uani 1 1 d . . . . .
H1XA H 0.356777 1.319511 0.419643 0.053 Uiso 1 1 calc R U . . .
H1XB H 0.260330 1.295412 0.343678 0.053 Uiso 1 1 calc R U . . .
H1XC H 0.275379 1.221719 0.421833 0.053 Uiso 1 1 calc R U . . .
C1Y C 0.5759(5) 1.1780(5) 0.5572(3) 0.0336(12) Uani 1 1 d . . . . .
H1YA H 0.520004 1.135797 0.521986 0.050 Uiso 1 1 calc R U . . .
H1YB H 0.568804 1.247972 0.540672 0.050 Uiso 1 1 calc R U . . .
H1YC H 0.560053 1.173370 0.617876 0.050 Uiso 1 1 calc R U . . .
C1Z C 0.1889(5) 1.4633(4) 0.4227(4) 0.0371(12) Uani 1 1 d . . . . .
H1ZA H 0.125926 1.501411 0.447639 0.056 Uiso 1 1 calc R U . . .
H1ZB H 0.177624 1.460723 0.359987 0.056 Uiso 1 1 calc R U . . .
H1ZC H 0.263401 1.496338 0.439825 0.056 Uiso 1 1 calc R U . . .
C20 C 0.6137(5) 1.4131(4) 0.7479(4) 0.0331(11) Uani 1 1 d . . . . .
H20A H 0.613826 1.360926 0.701773 0.050 Uiso 1 1 calc R U . . .
H20B H 0.666616 1.467931 0.735422 0.050 Uiso 1 1 calc R U . . .
H20C H 0.535005 1.439207 0.751942 0.050 Uiso 1 1 calc R U . . .
C21 C 0.0647(5) 1.3073(5) 0.4359(3) 0.0345(12) Uani 1 1 d . . . . .
H21A H 0.064540 1.237123 0.452445 0.052 Uiso 1 1 calc R U . . .
H21B H 0.043782 1.310167 0.374332 0.052 Uiso 1 1 calc R U . . .
H21C H 0.008270 1.345136 0.468461 0.052 Uiso 1 1 calc R U . . .
C22 C 0.7133(6) 1.0329(5) 0.5775(4) 0.0388(13) Uani 1 1 d . . . . .
H22A H 0.786540 1.003981 0.560211 0.058 Uiso 1 1 calc R U . . .
H22B H 0.648343 0.990562 0.553692 0.058 Uiso 1 1 calc R U . . .
H22C H 0.712657 1.036462 0.640271 0.058 Uiso 1 1 calc R U . . .

loop_
_atom_site_aniso_label
_atom_site_aniso_U_11
_atom_site_aniso_U_22
_atom_site_aniso_U_33
_atom_site_aniso_U_23
_atom_site_aniso_U_13
_atom_site_aniso_U_12
O1 0.0189(15) 0.0144(14) 0.0358(18) 0.0015(13) 0.0029(13) 0.0018(11)
O2 0.0231(16) 0.0129(14) 0.0356(18) 0.0025(13) 0.0055(13) 0.0016(12)
N 0.0165(16) 0.0126(16) 0.0206(17) 0.0019(13) 0.0019(13) -0.0001(13)
N2 0.0218(17) 0.0121(16) 0.0154(16) 0.0014(12) 0.0004(13) 0.0005(13)
N3 0.0178(16) 0.0152(17) 0.0199(17) -0.0013(13) 0.0030(13) 0.0012(13)
N4 0.0150(16) 0.0152(16) 0.0251(19) 0.0056(14) 0.0026(13) 0.0001(13)
C1 0.0182(19) 0.0151(18) 0.0144(18) 0.0011(14) 0.0033(14) -0.0012(15)
C2 0.0167(18) 0.0124(18) 0.020(2) 0.0018(15) -0.0004(15) 0.0004(14)
C3 0.021(2) 0.019(2) 0.0150(19) -0.0018(15) 0.0032(15) 0.0024(16)
C4 0.0151(18) 0.0128(18) 0.0166(19) 0.0004(14) 0.0036(14) 0.0001(14)
C5 0.0182(19) 0.0108(17) 0.0182(19) 0.0016(14) 0.0005(15) 0.0017(14)
C6 0.0200(19) 0.0157(19) 0.020(2) 0.0027(15) 0.0038(15) 0.0040(15)
C7 0.0184(19) 0.0149(18) 0.0136(18) 0.0016(14) -0.0006(14) 0.0017(15)
C8 0.0200(19) 0.0143(18) 0.0174(19) 0.0006(15) -0.0011(15) -0.0006(15)
C9 0.0186(19) 0.0120(18) 0.0184(19) -0.0008(15) 0.0008(15) 0.0001(15)
C10 0.024(2) 0.0121(18) 0.0176(19) 0.0026(15) 0.0057(16) 0.0023(15)
C11 0.021(2) 0.0147(19) 0.024(2) 0.0014(16) 0.0016(16) -0.0015(15)
C12 0.0205(19) 0.0118(17) 0.0146(18) 0.0019(14) 0.0014(15) -0.0005(14)
C13 0.0172(19) 0.019(2) 0.026(2) 0.0011(16) 0.0012(16) -0.0032(15)
C14 0.024(2) 0.0121(18) 0.022(2) 0.0023(15) 0.0013(16) -0.0002(15)
C15 0.0162(18) 0.0128(18) 0.024(2) 0.0008(15) -0.0002(15) 0.0015(14)
C16 0.0127(18) 0.025(2) 0.033(2) -0.0005(18) 0.0020(16) 0.0068(16)
C17 0.0184(19) 0.0179(19) 0.019(2) 0.0025(15) 0.0016(15) -0.0016(15)
C18 0.0174(18) 0.0151(18) 0.0158(19) 0.0036(14) 0.0054(15) 0.0019(15)
C19 0.021(2) 0.017(2) 0.024(2) 0.0044(16) 0.0035(16) -0.0003(16)
C1A 0.0192(19) 0.0098(17) 0.020(2) 0.0020(14) 0.0017(15) 0.0008(14)
C1B 0.0150(19) 0.026(2) 0.031(2) 0.0030(18) -0.0006(17) 0.0038(17)
C1C 0.0148(19) 0.018(2) 0.027(2) 0.0014(16) 0.0041(16) -0.0018(15)
C1D 0.0193(19) 0.0153(19) 0.020(2) 0.0008(15) 0.0027(15) -0.0008(15)
C1E 0.029(2) 0.017(2) 0.023(2) 0.0089(17) 0.0035(18) -0.0017(17)
C1F 0.022(2) 0.0139(19) 0.023(2) 0.0040(16) -0.0006(16) 0.0003(15)
C1G 0.0189(19) 0.018(2) 0.022(2) 0.0003(16) 0.0040(16) 0.0058(16)
C1H 0.018(2) 0.027(2) 0.032(2) 0.0015(19) 0.0037(18) -0.0049(17)
C1I 0.019(2) 0.021(2) 0.026(2) -0.0028(17) 0.0005(17) -0.0023(16)
C1J 0.023(2) 0.017(2) 0.027(2) 0.0034(17) 0.0001(17) 0.0031(16)
C1K 0.021(2) 0.0168(19) 0.019(2) 0.0020(15) -0.0010(16) -0.0037(16)
C1L 0.027(2) 0.022(2) 0.033(3) 0.0001(19) -0.0018(19) 0.0081(18)
C1M 0.027(2) 0.022(2) 0.021(2) 0.0006(17) 0.0004(17) -0.0028(17)
C1N 0.026(2) 0.019(2) 0.024(2) 0.0076(17) -0.0001(17) 0.0022(17)
C1O 0.021(2) 0.024(2) 0.018(2) 0.0047(16) -0.0024(16) -0.0014(16)
C1P 0.022(2) 0.017(2) 0.023(2) 0.0058(16) 0.0059(16) 0.0041(16)
C1Q 0.026(2) 0.036(3) 0.016(2) 0.0052(18) -0.0029(17) -0.0038(19)
C1R 0.025(2) 0.031(2) 0.023(2) 0.0058(19) 0.0039(18) -0.0003(19)
C1S 0.026(2) 0.023(2) 0.023(2) 0.0014(17) 0.0017(17) 0.0046(17)
C1T 0.021(2) 0.026(2) 0.022(2) 0.0043(17) 0.0002(16) -0.0003(17)
C1U 0.032(3) 0.051(3) 0.021(2) 0.002(2) -0.0048(19) -0.015(2)
C1V 0.032(3) 0.029(3) 0.030(3) 0.002(2) -0.004(2) 0.008(2)
C1W 0.026(2) 0.032(3) 0.047(3) 0.003(2) 0.014(2) -0.009(2)
C1X 0.038(3) 0.047(3) 0.022(2) 0.006(2) 0.006(2) 0.006(2)
C1Y 0.029(3) 0.053(3) 0.019(2) -0.002(2) 0.0027(19) -0.003(2)
C1Z 0.043(3) 0.039(3) 0.030(3) 0.015(2) 0.003(2) 0.000(2)
C20 0.041(3) 0.027(3) 0.033(3) 0.004(2) 0.012(2) -0.008(2)
C21 0.032(3) 0.049(3) 0.022(2) 0.007(2) -0.003(2) -0.008(2)
C22 0.046(3) 0.045(3) 0.027(3) 0.017(2) 0.000(2) -0.001(3)

_geom_special_details            
;
 All esds (except the esd in the dihedral angle between two l.s. planes)
 are estimated using the full covariance matrix.  The cell esds are taken
 into account individually in the estimation of esds in distances, angles
 and torsion angles; correlations between esds in cell parameters are only
 used when they are defined by crystal symmetry.  An approximate (isotropic)
 treatment of cell esds is used for estimating esds involving l.s. planes.
;
loop_
_geom_bond_atom_site_label_1
_geom_bond_atom_site_label_2
_geom_bond_distance
_geom_bond_site_symmetry_2
_geom_bond_publ_flag
O1 C1 1.239(5) . ?
O2 C2 1.232(5) . ?
N C9 1.369(5) . ?
N C10 1.369(5) . ?
N C1C 1.469(5) . ?
N2 C7 1.371(5) . ?
N2 C14 1.361(5) . ?
N2 C15 1.455(5) . ?
N3 C1 1.363(5) . ?
N3 C16 1.471(5) . ?
N3 C1I 1.462(5) . ?
N4 C2 1.355(5) . ?
N4 C3 1.460(5) . ?
N4 C1H 1.458(6) . ?
C1 C8 1.476(6) . ?
C2 C5 1.481(6) . ?
C3 H3A 0.9700 . ?
C3 H3B 0.9700 . ?
C3 C1L 1.526(6) . ?
C4 H4 0.9800 . ?
C4 C7 1.484(5) . ?
C4 C12 1.514(6) . ?
C4 C18 1.519(5) . ?
C5 C6 1.431(6) . ?
C5 C9 1.383(6) . ?
C6 H6 0.9300 . ?
C6 C10 1.371(6) . ?
C7 C8 1.376(6) . ?
C8 C19 1.428(6) . ?
C9 C1A 1.475(5) . ?
C10 H10 0.9300 . ?
C11 H11A 0.9700 . ?
C11 H11B 0.9700 . ?
C11 C1C 1.537(6) . ?
C11 C1D 1.535(6) . ?
C12 C18 1.527(6) . ?
C12 C1F 1.512(5) . ?
C12 C1K 1.521(6) . ?
C13 H13A 0.9600 . ?
C13 H13B 0.9600 . ?
C13 H13C 0.9600 . ?
C13 C18 1.523(6) . ?
C14 H14 0.9300 . ?
C14 C19 1.376(6) . ?
C15 H15A 0.9700 . ?
C15 H15B 0.9700 . ?
C15 C1G 1.530(6) . ?
C16 H16A 0.9700 . ?
C16 H16B 0.9700 . ?
C16 C1V 1.519(7) . ?
C17 C1A 1.517(6) . ?
C17 C1D 1.535(6) . ?
C17 C1J 1.504(6) . ?
C17 C1P 1.525(6) . ?
C18 C1G 1.531(6) . ?
C19 H19 0.9300 . ?
C1A H1A 0.9800 . ?
C1A C1D 1.523(6) . ?
C1B H1BA 0.9600 . ?
C1B H1BB 0.9600 . ?
C1B H1BC 0.9600 . ?
C1B C1D 1.511(6) . ?
C1C H1CA 0.9700 . ?
C1C H1CB 0.9700 . ?
C1E H1EA 0.9700 . ?
C1E H1EB 0.9700 . ?
C1E C1F 1.535(6) . ?
C1E C1O 1.541(6) . ?
C1F H1FA 0.9700 . ?
C1F H1FB 0.9700 . ?
C1G H1GA 0.9700 . ?
C1G H1GB 0.9700 . ?
C1H H1HA 0.9700 . ?
C1H H1HB 0.9700 . ?
C1H C20 1.524(7) . ?
C1I H1IA 0.9700 . ?
C1I H1IB 0.9700 . ?
C1I C1W 1.532(7) . ?
C1J H1JA 0.9700 . ?
C1J H1JB 0.9700 . ?
C1J C1N 1.542(6) . ?
C1K H1KA 0.9700 . ?
C1K H1KB 0.9700 . ?
C1K C1M 1.521(6) . ?
C1L H1LA 0.9600 . ?
C1L H1LB 0.9600 . ?
C1L H1LC 0.9600 . ?
C1M H1MA 0.9700 . ?
C1M H1MB 0.9700 . ?
C1M C1O 1.538(6) . ?
C1N H1NA 0.9700 . ?
C1N H1NB 0.9700 . ?
C1N C1T 1.534(6) . ?
C1O H1O 0.9800 . ?
C1O C1Q 1.570(6) . ?
C1P H1PA 0.9700 . ?
C1P H1PB 0.9700 . ?
C1P C1S 1.523(6) . ?
C1Q C1U 1.543(7) . ?
C1Q C1Y 1.523(7) . ?
C1Q C22 1.534(7) . ?
C1R C1T 1.572(6) . ?
C1R C1X 1.531(7) . ?
C1R C1Z 1.527(7) . ?
C1R C21 1.532(7) . ?
C1S H1SA 0.9700 . ?
C1S H1SB 0.9700 . ?
C1S C1T 1.541(6) . ?
C1T H1T 0.9800 . ?
C1U H1UA 0.9600 . ?
C1U H1UB 0.9600 . ?
C1U H1UC 0.9600 . ?
C1V H1VA 0.9600 . ?
C1V H1VB 0.9600 . ?
C1V H1VC 0.9600 . ?
C1W H1WA 0.9600 . ?
C1W H1WB 0.9600 . ?
C1W H1WC 0.9600 . ?
C1X H1XA 0.9600 . ?
C1X H1XB 0.9600 . ?
C1X H1XC 0.9600 . ?
C1Y H1YA 0.9600 . ?
C1Y H1YB 0.9600 . ?
C1Y H1YC 0.9600 . ?
C1Z H1ZA 0.9600 . ?
C1Z H1ZB 0.9600 . ?
C1Z H1ZC 0.9600 . ?
C20 H20A 0.9600 . ?
C20 H20B 0.9600 . ?
C20 H20C 0.9600 . ?
C21 H21A 0.9600 . ?
C21 H21B 0.9600 . ?
C21 H21C 0.9600 . ?
C22 H22A 0.9600 . ?
C22 H22B 0.9600 . ?
C22 H22C 0.9600 . ?

loop_
_geom_angle_atom_site_label_1
_geom_angle_atom_site_label_2
_geom_angle_atom_site_label_3
_geom_angle
_geom_angle_site_symmetry_1
_geom_angle_site_symmetry_3
_geom_angle_publ_flag
C9 N C1C 122.3(3) . . ?
C10 N C9 109.9(3) . . ?
C10 N C1C 127.6(4) . . ?
C7 N2 C15 122.1(3) . . ?
C14 N2 C7 110.0(4) . . ?
C14 N2 C15 127.8(4) . . ?
C1 N3 C16 116.4(3) . . ?
C1 N3 C1I 125.3(4) . . ?
C1I N3 C16 116.8(4) . . ?
C2 N4 C3 124.6(4) . . ?
C2 N4 C1H 117.1(4) . . ?
C1H N4 C3 117.6(4) . . ?
O1 C1 N3 119.6(4) . . ?
O1 C1 C8 120.1(4) . . ?
N3 C1 C8 120.3(4) . . ?
O2 C2 N4 119.8(4) . . ?
O2 C2 C5 119.9(4) . . ?
N4 C2 C5 120.2(4) . . ?
N4 C3 H3A 109.1 . . ?
N4 C3 H3B 109.1 . . ?
N4 C3 C1L 112.4(4) . . ?
H3A C3 H3B 107.8 . . ?
C1L C3 H3A 109.1 . . ?
C1L C3 H3B 109.1 . . ?
C7 C4 H4 116.0 . . ?
C7 C4 C12 120.4(3) . . ?
C7 C4 C18 116.4(3) . . ?
C12 C4 H4 116.0 . . ?
C12 C4 C18 60.5(3) . . ?
C18 C4 H4 116.0 . . ?
C6 C5 C2 133.7(4) . . ?
C9 C5 C2 119.4(4) . . ?
C9 C5 C6 106.9(4) . . ?
C5 C6 H6 126.3 . . ?
C10 C6 C5 107.4(4) . . ?
C10 C6 H6 126.3 . . ?
N2 C7 C4 119.4(4) . . ?
N2 C7 C8 107.7(4) . . ?
C8 C7 C4 132.6(4) . . ?
C7 C8 C1 120.1(4) . . ?
C7 C8 C19 107.1(4) . . ?
C19 C8 C1 132.8(4) . . ?
N C9 C5 107.7(4) . . ?
N C9 C1A 119.6(4) . . ?
C5 C9 C1A 132.6(4) . . ?
N C10 C6 108.0(4) . . ?
N C10 H10 126.0 . . ?
C6 C10 H10 126.0 . . ?
H11A C11 H11B 108.1 . . ?
C1C C11 H11A 109.6 . . ?
C1C C11 H11B 109.6 . . ?
C1D C11 H11A 109.6 . . ?
C1D C11 H11B 109.6 . . ?
C1D C11 C1C 110.5(4) . . ?
C4 C12 C18 59.9(3) . . ?
C4 C12 C1K 119.8(3) . . ?
C1F C12 C4 117.5(3) . . ?
C1F C12 C18 120.1(3) . . ?
C1F C12 C1K 110.8(3) . . ?
C1K C12 C18 120.3(3) . . ?
H13A C13 H13B 109.5 . . ?
H13A C13 H13C 109.5 . . ?
H13B C13 H13C 109.5 . . ?
C18 C13 H13A 109.5 . . ?
C18 C13 H13B 109.5 . . ?
C18 C13 H13C 109.5 . . ?
N2 C14 H14 126.0 . . ?
N2 C14 C19 108.0(4) . . ?
C19 C14 H14 126.0 . . ?
N2 C15 H15A 110.0 . . ?
N2 C15 H15B 110.0 . . ?
N2 C15 C1G 108.6(3) . . ?
H15A C15 H15B 108.4 . . ?
C1G C15 H15A 110.0 . . ?
C1G C15 H15B 110.0 . . ?
N3 C16 H16A 109.4 . . ?
N3 C16 H16B 109.4 . . ?
N3 C16 C1V 111.3(4) . . ?
H16A C16 H16B 108.0 . . ?
C1V C16 H16A 109.4 . . ?
C1V C16 H16B 109.4 . . ?
C1A C17 C1D 59.9(3) . . ?
C1A C17 C1P 119.6(4) . . ?
C1J C17 C1A 117.5(4) . . ?
C1J C17 C1D 120.3(4) . . ?
C1J C17 C1P 110.7(4) . . ?
C1P C17 C1D 120.6(4) . . ?
C4 C18 C12 59.6(3) . . ?
C4 C18 C13 117.5(4) . . ?
C4 C18 C1G 115.3(3) . . ?
C12 C18 C1G 121.4(4) . . ?
C13 C18 C12 120.3(3) . . ?
C13 C18 C1G 112.5(3) . . ?
C8 C19 H19 126.4 . . ?
C14 C19 C8 107.1(4) . . ?
C14 C19 H19 126.4 . . ?
C9 C1A C17 120.2(4) . . ?
C9 C1A H1A 116.0 . . ?
C9 C1A C1D 116.4(3) . . ?
C17 C1A H1A 116.0 . . ?
C17 C1A C1D 60.7(3) . . ?
C1D C1A H1A 116.0 . . ?
H1BA C1B H1BB 109.5 . . ?
H1BA C1B H1BC 109.5 . . ?
H1BB C1B H1BC 109.5 . . ?
C1D C1B H1BA 109.5 . . ?
C1D C1B H1BB 109.5 . . ?
C1D C1B H1BC 109.5 . . ?
N C1C C11 107.9(3) . . ?
N C1C H1CA 110.1 . . ?
N C1C H1CB 110.1 . . ?
C11 C1C H1CA 110.1 . . ?
C11 C1C H1CB 110.1 . . ?
H1CA C1C H1CB 108.4 . . ?
C11 C1D C17 121.5(4) . . ?
C1A C1D C11 115.2(4) . . ?
C1A C1D C17 59.5(3) . . ?
C1B C1D C11 112.4(4) . . ?
C1B C1D C17 120.7(4) . . ?
C1B C1D C1A 117.1(4) . . ?
H1EA C1E H1EB 108.0 . . ?
C1F C1E H1EA 109.3 . . ?
C1F C1E H1EB 109.3 . . ?
C1F C1E C1O 111.7(4) . . ?
C1O C1E H1EA 109.3 . . ?
C1O C1E H1EB 109.3 . . ?
C12 C1F C1E 110.5(4) . . ?
C12 C1F H1FA 109.5 . . ?
C12 C1F H1FB 109.5 . . ?
C1E C1F H1FA 109.5 . . ?
C1E C1F H1FB 109.5 . . ?
H1FA C1F H1FB 108.1 . . ?
C15 C1G C18 110.7(3) . . ?
C15 C1G H1GA 109.5 . . ?
C15 C1G H1GB 109.5 . . ?
C18 C1G H1GA 109.5 . . ?
C18 C1G H1GB 109.5 . . ?
H1GA C1G H1GB 108.1 . . ?
N4 C1H H1HA 109.1 . . ?
N4 C1H H1HB 109.1 . . ?
N4 C1H C20 112.5(4) . . ?
H1HA C1H H1HB 107.8 . . ?
C20 C1H H1HA 109.1 . . ?
C20 C1H H1HB 109.1 . . ?
N3 C1I H1IA 109.1 . . ?
N3 C1I H1IB 109.1 . . ?
N3 C1I C1W 112.5(4) . . ?
H1IA C1I H1IB 107.8 . . ?
C1W C1I H1IA 109.1 . . ?
C1W C1I H1IB 109.1 . . ?
C17 C1J H1JA 109.4 . . ?
C17 C1J H1JB 109.4 . . ?
C17 C1J C1N 111.0(4) . . ?
H1JA C1J H1JB 108.0 . . ?
C1N C1J H1JA 109.4 . . ?
C1N C1J H1JB 109.4 . . ?
C12 C1K H1KA 109.8 . . ?
C12 C1K H1KB 109.8 . . ?
C12 C1K C1M 109.5(3) . . ?
H1KA C1K H1KB 108.2 . . ?
C1M C1K H1KA 109.8 . . ?
C1M C1K H1KB 109.8 . . ?
C3 C1L H1LA 109.5 . . ?
C3 C1L H1LB 109.5 . . ?
C3 C1L H1LC 109.5 . . ?
H1LA C1L H1LB 109.5 . . ?
H1LA C1L H1LC 109.5 . . ?
H1LB C1L H1LC 109.5 . . ?
C1K C1M H1MA 109.1 . . ?
C1K C1M H1MB 109.1 . . ?
C1K C1M C1O 112.4(4) . . ?
H1MA C1M H1MB 107.9 . . ?
C1O C1M H1MA 109.1 . . ?
C1O C1M H1MB 109.1 . . ?
C1J C1N H1NA 109.4 . . ?
C1J C1N H1NB 109.4 . . ?
H1NA C1N H1NB 108.0 . . ?
C1T C1N C1J 111.2(4) . . ?
C1T C1N H1NA 109.4 . . ?
C1T C1N H1NB 109.4 . . ?
C1E C1O H1O 106.6 . . ?
C1E C1O C1Q 113.7(4) . . ?
C1M C1O C1E 109.5(4) . . ?
C1M C1O H1O 106.6 . . ?
C1M C1O C1Q 113.5(4) . . ?
C1Q C1O H1O 106.6 . . ?
C17 C1P H1PA 109.5 . . ?
C17 C1P H1PB 109.5 . . ?
H1PA C1P H1PB 108.1 . . ?
C1S C1P C17 110.7(4) . . ?
C1S C1P H1PA 109.5 . . ?
C1S C1P H1PB 109.5 . . ?
C1U C1Q C1O 110.0(4) . . ?
C1Y C1Q C1O 111.8(4) . . ?
C1Y C1Q C1U 109.4(4) . . ?
C1Y C1Q C22 108.4(4) . . ?
C22 C1Q C1O 109.5(4) . . ?
C22 C1Q C1U 107.7(4) . . ?
C1X C1R C1T 109.0(4) . . ?
C1X C1R C21 109.2(5) . . ?
C1Z C1R C1T 110.0(4) . . ?
C1Z C1R C1X 108.1(4) . . ?
C1Z C1R C21 108.5(4) . . ?
C21 C1R C1T 112.0(4) . . ?
C1P C1S H1SA 109.3 . . ?
C1P C1S H1SB 109.3 . . ?
C1P C1S C1T 111.6(4) . . ?
H1SA C1S H1SB 108.0 . . ?
C1T C1S H1SA 109.3 . . ?
C1T C1S H1SB 109.3 . . ?
C1N C1T C1R 113.9(4) . . ?
C1N C1T C1S 109.2(4) . . ?
C1N C1T H1T 106.4 . . ?
C1R C1T H1T 106.4 . . ?
C1S C1T C1R 114.0(4) . . ?
C1S C1T H1T 106.4 . . ?
C1Q C1U H1UA 109.5 . . ?
C1Q C1U H1UB 109.5 . . ?
C1Q C1U H1UC 109.5 . . ?
H1UA C1U H1UB 109.5 . . ?
H1UA C1U H1UC 109.5 . . ?
H1UB C1U H1UC 109.5 . . ?
C16 C1V H1VA 109.5 . . ?
C16 C1V H1VB 109.5 . . ?
C16 C1V H1VC 109.5 . . ?
H1VA C1V H1VB 109.5 . . ?
H1VA C1V H1VC 109.5 . . ?
H1VB C1V H1VC 109.5 . . ?
C1I C1W H1WA 109.5 . . ?
C1I C1W H1WB 109.5 . . ?
C1I C1W H1WC 109.5 . . ?
H1WA C1W H1WB 109.5 . . ?
H1WA C1W H1WC 109.5 . . ?
H1WB C1W H1WC 109.5 . . ?
C1R C1X H1XA 109.5 . . ?
C1R C1X H1XB 109.5 . . ?
C1R C1X H1XC 109.5 . . ?
H1XA C1X H1XB 109.5 . . ?
H1XA C1X H1XC 109.5 . . ?
H1XB C1X H1XC 109.5 . . ?
C1Q C1Y H1YA 109.5 . . ?
C1Q C1Y H1YB 109.5 . . ?
C1Q C1Y H1YC 109.5 . . ?
H1YA C1Y H1YB 109.5 . . ?
H1YA C1Y H1YC 109.5 . . ?
H1YB C1Y H1YC 109.5 . . ?
C1R C1Z H1ZA 109.5 . . ?
C1R C1Z H1ZB 109.5 . . ?
C1R C1Z H1ZC 109.5 . . ?
H1ZA C1Z H1ZB 109.5 . . ?
H1ZA C1Z H1ZC 109.5 . . ?
H1ZB C1Z H1ZC 109.5 . . ?
C1H C20 H20A 109.5 . . ?
C1H C20 H20B 109.5 . . ?
C1H C20 H20C 109.5 . . ?
H20A C20 H20B 109.5 . . ?
H20A C20 H20C 109.5 . . ?
H20B C20 H20C 109.5 . . ?
C1R C21 H21A 109.5 . . ?
C1R C21 H21B 109.5 . . ?
C1R C21 H21C 109.5 . . ?
H21A C21 H21B 109.5 . . ?
H21A C21 H21C 109.5 . . ?
H21B C21 H21C 109.5 . . ?
C1Q C22 H22A 109.5 . . ?
C1Q C22 H22B 109.5 . . ?
C1Q C22 H22C 109.5 . . ?
H22A C22 H22B 109.5 . . ?
H22A C22 H22C 109.5 . . ?
H22B C22 H22C 109.5 . . ?

loop_
_geom_torsion_atom_site_label_1
_geom_torsion_atom_site_label_2
_geom_torsion_atom_site_label_3
_geom_torsion_atom_site_label_4
_geom_torsion
_geom_torsion_site_symmetry_1
_geom_torsion_site_symmetry_2
_geom_torsion_site_symmetry_3
_geom_torsion_site_symmetry_4
_geom_torsion_publ_flag
O1 C1 C8 C7 36.4(6) . . . . ?
O1 C1 C8 C19 -140.5(5) . . . . ?
O2 C2 C5 C6 -139.5(5) . . . . ?
O2 C2 C5 C9 41.7(6) . . . . ?
N C9 C1A C17 -94.3(5) . . . . ?
N C9 C1A C1D -24.4(6) . . . . ?
N2 C7 C8 C1 -179.4(4) . . . . ?
N2 C7 C8 C19 -1.8(5) . . . . ?
N2 C14 C19 C8 -0.3(5) . . . . ?
N2 C15 C1G C18 -58.6(4) . . . . ?
N3 C1 C8 C7 -143.2(4) . . . . ?
N3 C1 C8 C19 39.9(7) . . . . ?
N4 C2 C5 C6 44.2(7) . . . . ?
N4 C2 C5 C9 -134.5(4) . . . . ?
C1 N3 C16 C1V -80.9(5) . . . . ?
C1 N3 C1I C1W -111.8(5) . . . . ?
C1 C8 C19 C14 178.5(4) . . . . ?
C2 N4 C3 C1L -106.7(5) . . . . ?
C2 N4 C1H C20 -79.8(5) . . . . ?
C2 C5 C6 C10 -178.5(4) . . . . ?
C2 C5 C9 N 177.7(4) . . . . ?
C2 C5 C9 C1A 1.7(7) . . . . ?
C3 N4 C2 O2 -173.1(4) . . . . ?
C3 N4 C2 C5 3.1(6) . . . . ?
C3 N4 C1H C20 91.8(5) . . . . ?
C4 C7 C8 C1 6.2(7) . . . . ?
C4 C7 C8 C19 -176.2(4) . . . . ?
C4 C12 C18 C13 106.1(4) . . . . ?
C4 C12 C18 C1G -102.8(4) . . . . ?
C4 C12 C1F C1E -158.4(4) . . . . ?
C4 C12 C1K C1M 159.1(4) . . . . ?
C4 C18 C1G C15 38.6(5) . . . . ?
C5 C6 C10 N 0.9(5) . . . . ?
C5 C9 C1A C17 81.4(6) . . . . ?
C5 C9 C1A C1D 151.3(4) . . . . ?
C6 C5 C9 N -1.4(5) . . . . ?
C6 C5 C9 C1A -177.4(4) . . . . ?
C7 N2 C14 C19 -0.9(5) . . . . ?
C7 N2 C15 C1G 40.8(5) . . . . ?
C7 C4 C12 C18 105.1(4) . . . . ?
C7 C4 C12 C1F -144.3(4) . . . . ?
C7 C4 C12 C1K -4.8(6) . . . . ?
C7 C4 C18 C12 -111.6(4) . . . . ?
C7 C4 C18 C13 137.7(4) . . . . ?
C7 C4 C18 C1G 1.4(5) . . . . ?
C7 C8 C19 C14 1.3(5) . . . . ?
C9 N C10 C6 -1.7(5) . . . . ?
C9 N C1C C11 39.7(5) . . . . ?
C9 C5 C6 C10 0.3(5) . . . . ?
C9 C1A C1D C11 1.6(5) . . . . ?
C9 C1A C1D C17 -111.5(4) . . . . ?
C9 C1A C1D C1B 137.2(4) . . . . ?
C10 N C9 C5 1.9(5) . . . . ?
C10 N C9 C1A 178.6(4) . . . . ?
C10 N C1C C11 -135.9(4) . . . . ?
C12 C4 C7 N2 -92.5(5) . . . . ?
C12 C4 C7 C8 81.4(6) . . . . ?
C12 C4 C18 C13 -110.7(4) . . . . ?
C12 C4 C18 C1G 113.0(4) . . . . ?
C12 C18 C1G C15 107.1(4) . . . . ?
C12 C1K C1M C1O 57.7(5) . . . . ?
C13 C18 C1G C15 -99.8(4) . . . . ?
C14 N2 C7 C4 177.0(4) . . . . ?
C14 N2 C7 C8 1.7(5) . . . . ?
C14 N2 C15 C1G -135.1(4) . . . . ?
C15 N2 C7 C4 0.4(6) . . . . ?
C15 N2 C7 C8 -174.9(4) . . . . ?
C15 N2 C14 C19 175.5(4) . . . . ?
C16 N3 C1 O1 -4.6(6) . . . . ?
C16 N3 C1 C8 175.0(4) . . . . ?
C16 N3 C1I C1W 82.8(5) . . . . ?
C17 C1A C1D C11 113.1(4) . . . . ?
C17 C1A C1D C1B -111.3(4) . . . . ?
C17 C1J C1N C1T -57.3(5) . . . . ?
C17 C1P C1S C1T 57.2(5) . . . . ?
C18 C4 C7 N2 -22.8(5) . . . . ?
C18 C4 C7 C8 151.1(4) . . . . ?
C18 C4 C12 C1F 110.6(4) . . . . ?
C18 C4 C12 C1K -109.9(4) . . . . ?
C18 C12 C1F C1E -89.0(5) . . . . ?
C18 C12 C1K C1M 88.6(5) . . . . ?
C1A C17 C1D C11 -102.6(4) . . . . ?
C1A C17 C1D C1B 105.4(4) . . . . ?
C1A C17 C1J C1N -160.5(4) . . . . ?
C1A C17 C1P C1S 161.3(4) . . . . ?
C1C N C9 C5 -174.3(4) . . . . ?
C1C N C9 C1A 2.3(6) . . . . ?
C1C N C10 C6 174.3(4) . . . . ?
C1C C11 C1D C17 107.7(4) . . . . ?
C1C C11 C1D C1A 39.4(5) . . . . ?
C1C C11 C1D C1B -98.2(4) . . . . ?
C1D C11 C1C N -58.6(4) . . . . ?
C1D C17 C1A C9 105.2(4) . . . . ?
C1D C17 C1J C1N -91.1(5) . . . . ?
C1D C17 C1P C1S 90.9(5) . . . . ?
C1E C1O C1Q C1U 172.5(4) . . . . ?
C1E C1O C1Q C1Y -65.7(5) . . . . ?
C1E C1O C1Q C22 54.4(5) . . . . ?
C1F C12 C18 C4 -106.3(4) . . . . ?
C1F C12 C18 C13 -0.2(6) . . . . ?
C1F C12 C18 C1G 150.9(4) . . . . ?
C1F C12 C1K C1M -59.0(5) . . . . ?
C1F C1E C1O C1M 53.6(5) . . . . ?
C1F C1E C1O C1Q -178.3(4) . . . . ?
C1H N4 C2 O2 -2.1(6) . . . . ?
C1H N4 C2 C5 174.2(4) . . . . ?
C1H N4 C3 C1L 82.3(5) . . . . ?
C1I N3 C1 O1 -170.0(4) . . . . ?
C1I N3 C1 C8 9.6(6) . . . . ?
C1I N3 C16 C1V 85.8(5) . . . . ?
C1J C17 C1A C9 -143.9(4) . . . . ?
C1J C17 C1A C1D 110.9(4) . . . . ?
C1J C17 C1D C11 151.2(4) . . . . ?
C1J C17 C1D C1A -106.1(4) . . . . ?
C1J C17 C1D C1B -0.7(6) . . . . ?
C1J C17 C1P C1S -57.3(5) . . . . ?
C1J C1N C1T C1R -175.6(4) . . . . ?
C1J C1N C1T C1S 55.6(5) . . . . ?
C1K C12 C18 C4 109.1(4) . . . . ?
C1K C12 C18 C13 -144.8(4) . . . . ?
C1K C12 C18 C1G 6.3(6) . . . . ?
C1K C12 C1F C1E 58.7(5) . . . . ?
C1K C1M C1O C1E -55.0(5) . . . . ?
C1K C1M C1O C1Q 176.8(4) . . . . ?
C1M C1O C1Q C1U -61.5(5) . . . . ?
C1M C1O C1Q C1Y 60.3(5) . . . . ?
C1M C1O C1Q C22 -179.6(4) . . . . ?
C1O C1E C1F C12 -56.3(5) . . . . ?
C1P C17 C1A C9 -5.1(6) . . . . ?
C1P C17 C1A C1D -110.3(4) . . . . ?
C1P C17 C1D C11 6.1(6) . . . . ?
C1P C17 C1D C1A 108.7(4) . . . . ?
C1P C17 C1D C1B -145.9(4) . . . . ?
C1P C17 C1J C1N 57.2(5) . . . . ?
C1P C1S C1T C1N -56.2(5) . . . . ?
C1P C1S C1T C1R 175.1(4) . . . . ?
C1X C1R C1T C1N 169.5(4) . . . . ?
C1X C1R C1T C1S -64.3(5) . . . . ?
C1Z C1R C1T C1N 51.1(5) . . . . ?
C1Z C1R C1T C1S 177.4(4) . . . . ?
C21 C1R C1T C1N -69.6(5) . . . . ?
C21 C1R C1T C1S 56.7(6) . . . . ?

_shelx_res_file                  
;
TITL 23mcd011_4_a.res in P-1
    23mcd011_4.res
    created by SHELXL-2018/3 at 16:29:52 on 10-Jun-2023
REM Old TITL 23mcd011_4_a.res in P-1
REM SHELXT solution in P-1: R1 0.195, Rweak 0.045, Alpha 0.103
REM <I/s> 0.000 for 0 systematic absences, Orientation as input
REM Formula found by SHELXT: C48 N4 O2
CELL 0.71073 11.3073 13.0433 15.2971 92.369 93.245 90.601
ZERR 4 0.001 0.0011 0.0013 0.003 0.003 0.003
LATT 1
SFAC C H N O
UNIT 96 152 8 4

L.S. 200
PLAN  10
SIZE 0.19 0.16 0.12
TEMP 20
CONF
BOND
list 4
MORE -1
ACTA
BOND $H
fmap 2 53
OMIT -1 0 1
OMIT 1 0 1
REM <olex2.extras>
REM <HklSrc "%.\\23MCD011_4.hkl">
REM </olex2.extras>

WGHT    0.082400   15.555600
EXTI    0.003312
FVAR       0.47543
O1    4    0.888888    1.103853    0.079863    11.00000    0.01888    0.01442 =
         0.03579    0.00145    0.00291    0.00183
O2    4    0.451406    1.400279    0.908135    11.00000    0.02312    0.01295 =
         0.03557    0.00245    0.00553    0.00158
N     3    0.207528    1.156377    0.908441    11.00000    0.01651    0.01257 =
         0.02065    0.00191    0.00189   -0.00006
N2    3    0.649002    1.343943    0.096346    11.00000    0.02182    0.01212 =
         0.01537    0.00139    0.00035    0.00050
N3    3    1.032217    1.221076    0.117153    11.00000    0.01782    0.01520 =
         0.01986   -0.00133    0.00304    0.00118
N4    3    0.577408    1.283525    0.857845    11.00000    0.01499    0.01519 =
         0.02505    0.00555    0.00262    0.00011
C1    1    0.917250    1.195344    0.093919    11.00000    0.01817    0.01509 =
         0.01442    0.00113    0.00328   -0.00121
C2    1    0.474539    1.309189    0.894023    11.00000    0.01671    0.01243 =
         0.01952    0.00184   -0.00037    0.00036
C3    1    0.608665    1.179503    0.829570    11.00000    0.02135    0.01946 =
         0.01502   -0.00181    0.00321    0.00238
AFIX  23
H3A   2    0.637733    1.180616    0.771157    11.00000   -1.20000
H3B   2    0.538170    1.136194    0.826637    11.00000   -1.20000
AFIX   0

C4    1    0.659655    1.171047    0.155597    11.00000    0.01512    0.01285 =
         0.01662    0.00043    0.00357    0.00010
AFIX  13
H4    2    0.653336    1.105572    0.121757    11.00000   -1.20000
AFIX   0

C5    1    0.386831    1.228514    0.911574    11.00000    0.01824    0.01077 =
         0.01822    0.00156    0.00053    0.00170
C6    1    0.395817    1.129790    0.948644    11.00000    0.01996    0.01574 =
         0.02014    0.00268    0.00384    0.00405
AFIX  43
H6    2    0.464918    1.099458    0.970313    11.00000   -1.20000
AFIX   0

C7    1    0.713969    1.257669    0.111517    11.00000    0.01845    0.01490 =
         0.01360    0.00160   -0.00062    0.00167
C8    1    0.826840    1.275732    0.086044    11.00000    0.01999    0.01428 =
         0.01739    0.00064   -0.00111   -0.00061
C9    1    0.268280    1.242925    0.888515    11.00000    0.01863    0.01203 =
         0.01842   -0.00079    0.00078    0.00011
C10   1    0.283767    1.088115    0.946345    11.00000    0.02402    0.01210 =
         0.01757    0.00256    0.00569    0.00230
AFIX  43
H10   2    0.263186    1.024622    0.966923    11.00000   -1.20000
AFIX   0
C11   1    0.054993    1.182468    0.793354    11.00000    0.02089    0.01474 =
         0.02433    0.00143    0.00162   -0.00150
AFIX  23
H11A  2    0.099185    1.143354    0.751175    11.00000   -1.20000
H11B  2   -0.028695    1.174127    0.776625    11.00000   -1.20000
AFIX   0

C12   1    0.674541    1.164024    0.254160    11.00000    0.02050    0.01176 =
         0.01461    0.00191    0.00138   -0.00047
C13   1    0.450260    1.123754    0.204886    11.00000    0.01722    0.01872 =
         0.02577    0.00113    0.00125   -0.00324
AFIX 137
H13A  2    0.476938    1.054744    0.195537    11.00000   -1.50000
H13B  2    0.397378    1.141436    0.156678    11.00000   -1.50000
H13C  2    0.409549    1.128875    0.258257    11.00000   -1.50000
AFIX   0
C14   1    0.716795    1.415538    0.059571    11.00000    0.02358    0.01206 =
         0.02156    0.00226    0.00131   -0.00022
AFIX  43
H14   2    0.692148    1.479941    0.042667    11.00000   -1.20000
AFIX   0
C15   1    0.527828    1.354046    0.122621    11.00000    0.01623    0.01282 =
         0.02430    0.00081   -0.00022    0.00146
AFIX  23
H15A  2    0.473923    1.317199    0.080531    11.00000   -1.20000
H15B  2    0.505870    1.425759    0.124692    11.00000   -1.20000
AFIX   0
C16   1    1.113939    1.135385    0.130519    11.00000    0.01270    0.02477 =
         0.03252   -0.00048    0.00204    0.00684
AFIX  23
H16A  2    1.194520    1.158980    0.124183    11.00000   -1.20000
H16B  2    1.095741    1.081492    0.086045    11.00000   -1.20000
AFIX   0

C17   1    0.199709    1.331766    0.746022    11.00000    0.01836    0.01787 =
         0.01861    0.00249    0.00160   -0.00159
C18   1    0.556402    1.197048    0.211527    11.00000    0.01742    0.01505 =
         0.01584    0.00356    0.00542    0.00191
C19   1    0.828148    1.375905    0.051801    11.00000    0.02128    0.01667 =
         0.02428    0.00439    0.00347   -0.00028
AFIX  43
H19   2    0.892257    1.408281    0.028597    11.00000   -1.20000
AFIX   0

C1A   1    0.204357    1.326542    0.845031    11.00000    0.01919    0.00976 =
         0.01964    0.00199    0.00170    0.00081
AFIX  13
H1A   2    0.203868    1.392522    0.878060    11.00000   -1.20000
AFIX   0
C1B   1   -0.014396    1.366285    0.801419    11.00000    0.01497    0.02562 =
         0.03120    0.00298   -0.00057    0.00376
AFIX 137
H1BA  2   -0.068691    1.356074    0.751182    11.00000   -1.50000
H1BB  2    0.012677    1.436415    0.805559    11.00000   -1.50000
H1BC  2   -0.053663    1.350793    0.853399    11.00000   -1.50000
AFIX   0
C1C   1    0.080485    1.141454    0.885187    11.00000    0.01481    0.01808 =
         0.02669    0.00142    0.00408   -0.00180
AFIX  23
H1CA  2    0.034110    1.178255    0.927429    11.00000   -1.20000
H1CB  2    0.059522    1.069156    0.885267    11.00000   -1.20000
AFIX   0
C1D   1    0.090233    1.296370    0.792158    11.00000    0.01926    0.01529 =
         0.02014    0.00077    0.00274   -0.00075

C1E   1    0.653671    1.059690    0.386295    11.00000    0.02925    0.01718 =
         0.02294    0.00890    0.00347   -0.00172
AFIX  23
H1EA  2    0.665552    0.992045    0.409103    11.00000   -1.20000
H1EB  2    0.570481    1.076027    0.389394    11.00000   -1.20000
AFIX   0
C1F   1    0.686677    1.058270    0.290300    11.00000    0.02186    0.01387 =
         0.02277    0.00403   -0.00061    0.00033
AFIX  23
H1FA  2    0.767640    1.035469    0.286279    11.00000   -1.20000
H1FB  2    0.635223    1.010246    0.255712    11.00000   -1.20000
AFIX   0
C1G   1    0.519805    1.309797    0.213234    11.00000    0.01887    0.01814 =
         0.02248    0.00025    0.00404    0.00576
AFIX  23
H1GA  2    0.439230    1.315357    0.231396    11.00000   -1.20000
H1GB  2    0.571200    1.349006    0.255485    11.00000   -1.20000
AFIX   0

C1H   1    0.654216    1.367455    0.834549    11.00000    0.01820    0.02704 =
         0.03201    0.00145    0.00366   -0.00487
AFIX  23
H1HA  2    0.734271    1.342418    0.830457    11.00000   -1.20000
H1HB  2    0.655651    1.420868    0.880655    11.00000   -1.20000
AFIX   0

C1I   1    1.074776    1.322998    0.148599    11.00000    0.01862    0.02113 =
         0.02645   -0.00276    0.00051   -0.00225
AFIX  23
H1IA  2    1.120531    1.317129    0.203705    11.00000   -1.20000
H1IB  2    1.007330    1.366087    0.159497    11.00000   -1.20000
AFIX   0

C1J   1    0.203653    1.436395    0.708392    11.00000    0.02281    0.01660 =
         0.02688    0.00344    0.00009    0.00312
AFIX  23
H1JA  2    0.284657    1.462134    0.712304    11.00000   -1.20000
H1JB  2    0.156359    1.483261    0.742311    11.00000   -1.20000
AFIX   0

C1K   1    0.753371    1.241427    0.307584    11.00000    0.02129    0.01680 =
         0.01909    0.00201   -0.00097   -0.00371
AFIX  23
H1KA  2    0.744080    1.308862    0.283818    11.00000   -1.20000
H1KB  2    0.835682    1.222105    0.304492    11.00000   -1.20000
AFIX   0

C1L   1    0.702841    1.133462    0.891118    11.00000    0.02670    0.02176 =
         0.03268    0.00014   -0.00177    0.00808
AFIX 137
H1LA  2    0.720078    1.065142    0.870198    11.00000   -1.50000
H1LB  2    0.674093    1.131280    0.948880    11.00000   -1.50000
H1LC  2    0.773610    1.174992    0.893004    11.00000   -1.50000
AFIX   0

C1M   1    0.719521    1.244594    0.402483    11.00000    0.02691    0.02247 =
         0.02054    0.00058    0.00044   -0.00282
AFIX  23
H1MA  2    0.638926    1.268737    0.405317    11.00000   -1.20000
H1MB  2    0.771122    1.293088    0.436424    11.00000   -1.20000
AFIX   0

C1N   1    0.156016    1.432369    0.611807    11.00000    0.02597    0.01920 =
         0.02427    0.00757   -0.00012    0.00217
AFIX  23
H1NA  2    0.073114    1.411883    0.608424    11.00000   -1.20000
H1NB  2    0.161787    1.500193    0.588547    11.00000   -1.20000
AFIX   0

C1O   1    0.728727    1.138967    0.443365    11.00000    0.02073    0.02445 =
         0.01803    0.00471   -0.00241   -0.00137
AFIX  13
H1O   2    0.811421    1.118027    0.440286    11.00000   -1.20000
AFIX   0

C1P   1    0.270055    1.255425    0.692159    11.00000    0.02241    0.01693 =
         0.02281    0.00575    0.00586    0.00405
AFIX  23
H1PA  2    0.352878    1.276155    0.695468    11.00000   -1.20000
H1PB  2    0.264382    1.187997    0.716184    11.00000   -1.20000
AFIX   0

C1Q   1    0.700993    1.141220    0.542801    11.00000    0.02594    0.03592 =
         0.01583    0.00520   -0.00294   -0.00381
C1R   1    0.188503    1.354406    0.455644    11.00000    0.02516    0.03065 =
         0.02346    0.00576    0.00395   -0.00028
C1S   1    0.222938    1.250224    0.596767    11.00000    0.02613    0.02261 =
         0.02268    0.00137    0.00166    0.00461
AFIX  23
H1SA  2    0.142093    1.224114    0.593252    11.00000   -1.20000
H1SB  2    0.270367    1.202912    0.563397    11.00000   -1.20000
AFIX   0
C1T   1    0.225980    1.356337    0.556256    11.00000    0.02084    0.02563 =
         0.02179    0.00431    0.00018   -0.00032
AFIX  13
H1T   2    0.308741    1.379911    0.561977    11.00000   -1.20000
AFIX   0

C1U   1    0.790999    1.211864    0.596423    11.00000    0.03171    0.05131 =
         0.02099    0.00218   -0.00476   -0.01541
AFIX 137
H1UA  2    0.779743    1.281531    0.580127    11.00000   -1.50000
H1UB  2    0.870010    1.191242    0.584741    11.00000   -1.50000
H1UC  2    0.779240    1.206772    0.657762    11.00000   -1.50000
AFIX   0
C1V   1    1.104539    1.092458    0.220693    11.00000    0.03156    0.02948 =
         0.02962    0.00155   -0.00350    0.00771
AFIX 137
H1VA  2    1.119754    1.146279    0.264737    11.00000   -1.50000
H1VB  2    1.161609    1.039201    0.228742    11.00000   -1.50000
H1VC  2    1.026312    1.064760    0.225596    11.00000   -1.50000
AFIX   0
C1W   1    1.151681    1.374330    0.083209    11.00000    0.02597    0.03196 =
         0.04682    0.00284    0.01405   -0.00900
AFIX 137
H1WA  2    1.179682    1.439777    0.107478    11.00000   -1.50000
H1WB  2    1.105508    1.383812    0.029602    11.00000   -1.50000
H1WC  2    1.218048    1.331571    0.071569    11.00000   -1.50000
AFIX   0

C1X   1    0.278657    1.291935    0.405524    11.00000    0.03754    0.04687 =
         0.02165    0.00590    0.00573    0.00626
AFIX 137
H1XA  2    0.356777    1.319511    0.419643    11.00000   -1.50000
H1XB  2    0.260330    1.295412    0.343678    11.00000   -1.50000
H1XC  2    0.275379    1.221719    0.421833    11.00000   -1.50000
AFIX   0

C1Y   1    0.575903    1.177988    0.557161    11.00000    0.02895    0.05287 =
         0.01893   -0.00151    0.00274   -0.00281
AFIX 137
H1YA  2    0.520004    1.135797    0.521986    11.00000   -1.50000
H1YB  2    0.568804    1.247972    0.540672    11.00000   -1.50000
H1YC  2    0.560053    1.173370    0.617876    11.00000   -1.50000
AFIX   0

C1Z   1    0.188900    1.463330    0.422718    11.00000    0.04334    0.03886 =
         0.03025    0.01474    0.00338    0.00006
AFIX 137
H1ZA  2    0.125926    1.501411    0.447639    11.00000   -1.50000
H1ZB  2    0.177624    1.460723    0.359987    11.00000   -1.50000
H1ZC  2    0.263401    1.496338    0.439825    11.00000   -1.50000
AFIX   0
C20   1    0.613662    1.413105    0.747901    11.00000    0.04141    0.02652 =
         0.03256    0.00401    0.01212   -0.00783
AFIX 137
H20A  2    0.613826    1.360926    0.701773    11.00000   -1.50000
H20B  2    0.666616    1.467931    0.735422    11.00000   -1.50000
H20C  2    0.535005    1.439207    0.751942    11.00000   -1.50000
AFIX   0
C21   1    0.064723    1.307313    0.435876    11.00000    0.03186    0.04932 =
         0.02200    0.00719   -0.00266   -0.00780
AFIX 137
H21A  2    0.064540    1.237123    0.452445    11.00000   -1.50000
H21B  2    0.043782    1.310167    0.374332    11.00000   -1.50000
H21C  2    0.008270    1.345136    0.468461    11.00000   -1.50000
AFIX   0

C22   1    0.713284    1.032923    0.577489    11.00000    0.04572    0.04475 =
         0.02691    0.01709   -0.00029   -0.00061
AFIX 137
H22A  2    0.786540    1.003981    0.560211    11.00000   -1.50000
H22B  2    0.648343    0.990562    0.553692    11.00000   -1.50000
H22C  2    0.712657    1.036462    0.640271    11.00000   -1.50000
AFIX   0
HKLF 4




REM  23mcd011_4_a.res in P-1
REM wR2 = 0.3376, GooF = S = 1.120, Restrained GooF = 1.120 for all data
REM R1 = 0.1328 for 9464 Fo > 4sig(Fo) and 0.1531 for all 11146 data
REM 500 parameters refined using 0 restraints

END

WGHT      0.0823     15.5600

REM Highest difference peak  0.516,  deepest hole -0.588,  1-sigma level  0.121
Q1    1   0.3790  1.1360  0.8812  11.00000  0.05    0.52
Q2    1   0.8052  1.1775  0.9080  11.00000  0.05    0.50
Q3    1   0.2035  1.3860  0.7361  11.00000  0.05    0.48
Q4    1  -0.0378  1.1962  0.9242  11.00000  0.05    0.47
Q5    1   0.8216  1.2428  0.8048  11.00000  0.05    0.47
Q6    1   0.9607  1.2170  0.1172  11.00000  0.05    0.46
Q7    1   0.7493  1.1850  0.5686  11.00000  0.05    0.45
Q8    1   0.8760  1.2389  0.0956  11.00000  0.05    0.44
Q9    1  -0.0959  1.3780  0.7816  11.00000  0.05    0.44
Q10   1   0.3400  1.2311  0.8649  11.00000  0.05    0.44
;
_shelx_res_checksum              64905
_shelx_hkl_file                  
;
   2   0   0 2493.15   37.30
   3   0   0    1.60    0.20
   4   0   0   96.79    1.70
   5   0   0   94.19    3.10
   6   0   0  115.59    3.20
   7   0   0    9.20    2.00
   8   0   0  128.59   11.70
   9   0   0    1.60    0.60
  10   0   0   44.60    1.80
  11   0   0  113.59    3.70
  12   0   0   26.10    3.00
  13   0   0   11.90    1.50
  14   0   0    8.70    2.20
  15   0   0   20.00    2.10
 -15   1   0   16.40    2.10
 -14   1   0   10.30    2.30
 -13   1   0   37.20    2.90
 -12   1   0   29.90    2.20
 -11   1   0    4.10    0.80
 -10   1   0    2.30    0.60
  -9   1   0    8.00    1.00
  -8   1   0    5.10    1.10
  -7   1   0    0.00    3.20
  -6   1   0  127.59   16.90
  -5   1   0   56.89    2.30
  -4   1   0  213.48    2.80
  -3   1   0 1361.16   17.00
  -2   1   0 3084.79   39.30
  -1   1   0  108.69    2.50
   1   1   0   29.50    0.80
   2   1   0 3702.83   46.30
   3   1   0  703.13    9.20
   4   1   0   10.60    0.60
   5   1   0 1761.92   42.10
   6   1   0  706.53   27.40
   7   1   0   92.99    5.20
   8   1   0   30.70    1.40
   9   1   0   27.10    1.20
  10   1   0   60.19    2.30
  11   1   0   63.59    3.40
  12   1   0   13.70    1.40
  13   1   0   15.00    1.90
  14   1   0    4.20    1.50
  15   1   0    1.90    1.60
 -14   2   0    6.80    1.50
 -13   2   0   33.70    3.10
 -12   2   0    0.70    0.80
 -11   2   0    1.50    0.60
 -10   2   0    9.10    0.80
  -9   2   0  199.18    6.10
  -8   2   0   32.90    1.30
  -7   2   0    5.80    1.20
  -6   2   0  695.23   15.40
  -5   2   0   25.80    0.80
  -4   2   0  179.58    2.60
  -3   2   0  311.57    4.50
  -2   2   0   66.19    1.20
  -1   2   0 1084.29   20.70
   0   2   0 7869.11  302.97
   1   2   0 1194.08   15.30
   2   2   0   74.59    1.10
   3   2   0  494.95    5.80
   4   2   0  502.95    7.80
   5   2   0   23.30    0.90
   6   2   0  140.89    7.00
   7   2   0  142.69    3.50
   8   2   0   13.80    0.80
   9   2   0   30.20    1.20
  10   2   0   19.80    1.50
  11   2   0   13.00    1.40
  12   2   0    8.00    1.00
  13   2   0    8.10    1.70
  14   2   0    3.20    1.50
 -14   3   0   25.60    2.40
 -13   3   0    6.40    1.50
 -12   3   0    9.60    0.90
 -11   3   0    1.30    0.70
 -10   3   0    6.30    1.20
  -9   3   0   70.49    2.30
  -8   3   0    1.70    0.90
  -7   3   0   29.90    2.00
  -6   3   0   88.39    2.70
  -5   3   0   40.00    1.20
  -4   3   0  623.24    7.30
  -3   3   0   14.10    0.60
  -2   3   0  544.25    8.40
  -1   3   0    8.40    0.40
   0   3   0    1.30    0.20
   1   3   0    1.10    0.20
   2   3   0  286.97    3.10
   3   3   0  301.97    4.00
   4   3   0 2357.16   29.20
   5   3   0   18.60    1.50
   6   3   0  260.37    6.50
   7   3   0  124.49    2.60
   8   3   0   20.80    1.00
   9   3   0   33.30    1.40
  10   3   0   19.30    1.40
  11   3   0   63.19    2.40
  12   3   0    8.70    1.30
  13   3   0    8.10    1.40
  14   3   0    1.60    1.00
 -14   4   0    3.60    2.00
 -13   4   0   16.20    1.50
 -12   4   0   10.50    1.00
 -11   4   0    3.70    1.10
 -10   4   0   56.79    2.00
  -9   4   0  244.68    4.80
  -8   4   0   13.10    1.60
  -7   4   0   15.60    1.40
  -6   4   0  154.38    3.30
  -5   4   0  179.28    3.10
  -4   4   0  663.73    9.60
  -3   4   0   99.69    1.70
  -2   4   0  482.25    7.40
  -1   4   0  102.59    2.00
   0   4   0 1750.02   27.80
   1   4   0   69.49    1.40
   2   4   0  194.48    2.30
   3   4   0    0.30    0.10
   4   4   0  153.38    3.10
   5   4   0   27.70    1.60
   6   4   0   41.40    1.20
   7   4   0  157.68    3.40
   8   4   0   59.29    1.60
   9   4   0    9.30    0.90
  10   4   0    4.30    1.20
  11   4   0    7.70    0.90
  12   4   0    7.20    1.50
  13   4   0    3.20    1.40
  14   4   0    2.40    1.20
 -14   5   0    3.60    1.80
 -13   5   0   56.49    2.30
 -12   5   0    7.80    1.10
 -11   5   0   20.50    1.50
 -10   5   0  111.49    3.00
  -9   5   0   74.49    2.40
  -8   5   0    8.70    1.50
  -7   5   0   33.90    1.60
  -6   5   0    9.80    1.20
  -5   5   0  213.68    3.70
  -4   5   0  134.39    2.50
  -3   5   0  143.29    2.80
  -2   5   0  227.28    3.40
  -1   5   0   33.70    0.80
   0   5   0    6.90    0.40
   1   5   0   11.10    0.50
   2   5   0  242.18    3.60
   3   5   0  116.19    2.60
   4   5   0   54.09    1.20
   5   5   0  562.24    9.80
   6   5   0   71.19    2.20
   7   5   0    9.20    0.80
   8   5   0   24.70    1.60
   9   5   0   91.29    2.50
  10   5   0   38.40    1.60
  11   5   0    1.00    1.10
  12   5   0   11.70    1.40
  13   5   0    3.40    1.30
  14   5   0    1.40    1.40
 -14   6   0    3.20    1.40
 -13   6   0    2.30    1.00
 -12   6   0    2.40    1.60
 -11   6   0    8.20    1.20
 -10   6   0   25.90    1.40
  -9   6   0   80.19    2.40
  -8   6   0   11.40    0.90
  -7   6   0  299.77    8.10
  -6   6   0   24.60    1.10
  -5   6   0   54.69    2.10
  -4   6   0   32.90    1.00
  -3   6   0  158.38    2.90
  -2   6   0   96.79    1.80
  -1   6   0  278.27    5.20
   0   6   0   85.19    2.00
   1   6   0  291.67    7.20
   2   6   0  145.59    2.40
   3   6   0   85.09    2.10
   4   6   0   18.40    0.70
   5   6   0   42.50    1.60
   6   6   0  117.79    2.20
   7   6   0  326.17    7.10
   8   6   0  340.27    8.30
   9   6   0    9.40    1.10
  10   6   0    6.90    1.10
  11   6   0   19.70    1.60
  12   6   0   26.40    1.70
  13   6   0    6.10    1.50
  14   6   0    8.70    1.60
 -13   7   0    6.10    2.40
 -12   7   0    9.10    1.80
 -11   7   0   15.80    1.30
 -10   7   0   21.60    2.50
  -9   7   0  105.29    2.60
  -8   7   0    6.70    0.80
  -7   7   0   66.99    2.80
  -6   7   0    0.00    2.40
  -5   7   0   67.19    2.50
  -4   7   0    4.20    0.60
  -3   7   0  229.98    4.10
  -2   7   0  485.55    6.70
  -1   7   0   70.59    3.10
   0   7   0   44.20    1.40
   1   7   0  127.49    7.40
   2   7   0  783.82   14.30
   3   7   0    9.70    0.80
   4   7   0    1.90    0.50
   5   7   0   57.79    1.70
   6   7   0  278.27    6.30
   7   7   0   22.50    1.60
   8   7   0   19.30    1.20
   9   7   0    3.80    1.00
  10   7   0   87.89    2.30
  11   7   0    6.80    1.30
  12   7   0    2.00    1.40
  13   7   0    8.90    1.60
 -13   8   0    4.80    3.40
 -12   8   0    4.60    1.40
 -11   8   0    4.30    1.30
 -10   8   0    1.30    1.10
  -9   8   0   24.60    1.40
  -8   8   0    9.30    1.10
  -7   8   0  153.08    9.50
  -6   8   0   27.60    5.10
  -5   8   0    2.40    1.30
  -4   8   0    3.70    0.80
  -3   8   0  132.59    2.60
  -2   8   0   40.10    1.90
  -1   8   0  171.78    9.20
   0   8   0   12.20    1.10
   1   8   0  127.59    4.90
   2   8   0  395.76   11.30
   3   8   0   64.89    2.00
   4   8   0   36.50    1.00
   5   8   0   12.70    1.50
   6   8   0   12.30    1.50
   7   8   0  160.78    8.70
   8   8   0  352.46    7.90
   9   8   0   51.99    2.30
  10   8   0    4.90    1.10
  11   8   0   42.60    2.20
  12   8   0    1.10    1.50
  13   8   0    1.80    1.70
 -12   9   0   46.90    2.50
 -11   9   0    5.60    2.90
 -10   9   0   39.90    3.70
  -9   9   0    6.90    1.20
  -8   9   0    7.20    2.40
  -7   9   0  248.88    9.30
  -6   9   0   23.60    1.60
  -5   9   0    1.10    2.00
  -4   9   0  112.29    3.30
  -3   9   0    6.00    0.80
  -2   9   0    7.80    1.00
  -1   9   0   69.39    3.40
   0   9   0    2.40    0.70
   1   9   0   60.39    3.20
   2   9   0    0.60    1.10
   3   9   0  155.88    3.10
   4   9   0  302.87    5.80
   5   9   0   32.40    2.10
   6   9   0   87.19    4.60
   7   9   0   47.30    3.00
   8   9   0   73.79    4.30
   9   9   0   11.10    1.70
  10   9   0    2.80    0.90
  11   9   0    5.30    1.10
  12   9   0   43.70    3.30
 -12  10   0    2.50    3.30
 -11  10   0    5.70    2.30
 -10  10   0    6.40    1.30
  -9  10   0    0.90    1.00
  -8  10   0    9.00    2.00
  -7  10   0   54.69    3.10
  -6  10   0    8.40    2.40
  -5  10   0   69.79    3.40
  -4  10   0  200.08    4.60
  -3  10   0   58.79    1.80
  -2  10   0  285.67    6.90
  -1  10   0   66.29    2.30
   0  10   0   76.89    3.20
   1  10   0   28.50    2.30
   2  10   0  554.84   12.10
   3  10   0  407.86    8.00
   4  10   0    1.30    0.50
   5  10   0    1.60    1.00
   6  10   0  219.18    6.40
   7  10   0   28.80    2.00
   8  10   0    7.60    1.50
   9  10   0   11.30    1.60
  10  10   0   14.50    1.70
  11  10   0    8.30    1.50
  12  10   0    3.20    2.20
 -11  11   0    3.80    1.40
 -10  11   0   16.70    1.80
  -9  11   0   68.69    4.30
  -8  11   0    0.10    1.80
  -7  11   0    9.80    2.00
  -6  11   0    7.80    2.40
  -5  11   0    9.90    1.40
  -4  11   0   37.30    1.80
  -3  11   0   11.40    1.10
  -2  11   0  177.18    7.10
  -1  11   0   43.10    2.80
   0  11   0   13.20    1.30
   1  11   0   26.00    2.70
   2  11   0  188.38    5.00
   3  11   0   42.60    1.50
   4  11   0  251.47    5.10
   5  11   0   48.90    2.90
   6  11   0  113.29    4.30
   7  11   0    5.50    1.60
   8  11   0    7.80    1.30
   9  11   0    9.80    1.20
  10  11   0    6.60    1.30
  11  11   0   14.40    3.00
 -11  12   0    4.90    1.50
 -10  12   0    5.20    2.40
  -9  12   0    7.40    2.70
  -8  12   0   24.20    2.20
  -7  12   0    6.10    3.00
  -6  12   0   12.50    2.10
  -5  12   0   31.50    2.30
  -4  12   0   49.50    2.10
  -3  12   0  167.08    8.50
  -2  12   0  116.59    4.90
  -1  12   0   23.20    2.30
   0  12   0   12.70    1.70
   1  12   0    5.40    2.40
   2  12   0  102.69    3.30
   3  12   0  405.56    9.30
   4  12   0    2.30    1.70
   5  12   0    0.00    1.70
   6  12   0   10.20    1.60
   7  12   0   23.20    3.10
   8  12   0    6.40    1.10
   9  12   0    2.60    1.00
  10  12   0    5.90    2.10
 -10  13   0    4.10    2.30
  -9  13   0    9.70    2.50
  -8  13   0    1.20    1.50
  -7  13   0   22.20    3.00
  -6  13   0    4.20    2.60
  -5  13   0   10.80    2.10
  -4  13   0    3.60    1.70
  -3  13   0   20.30    2.40
  -2  13   0    3.50    1.10
  -1  13   0   19.70    1.90
   0  13   0    3.00    1.20
   1  13   0    1.00    1.70
   2  13   0    0.80    1.00
   3  13   0   26.60    3.40
   4  13   0   26.30    2.00
   5  13   0   34.90    3.10
   6  13   0    1.70    1.70
   7  13   0   75.09    4.60
   8  13   0   14.10    1.50
   9  13   0    4.10    1.30
  -9  14   0    6.30    1.70
  -8  14   0    1.20    1.50
  -7  14   0    0.00    2.80
  -6  14   0    8.30    2.50
  -5  14   0   14.00    1.70
  -4  14   0    3.60    1.30
  -3  14   0    2.30    1.20
  -2  14   0    2.00    1.20
  -1  14   0   54.29    3.30
   0  14   0    2.10    0.80
   1  14   0   33.50    2.50
   2  14   0    2.10    1.20
   3  14   0    0.00    1.30
   4  14   0   37.50    2.40
   5  14   0    1.70    2.30
   6  14   0   16.30    2.40
   7  14   0    7.70    3.50
   8  14   0    9.50    1.80
  -7  15   0    2.50    2.40
  -6  15   0   15.20    2.50
  -5  15   0    1.50    2.70
  -4  15   0   11.70    1.80
  -3  15   0    0.30    1.00
  -2  15   0    5.40    2.90
  -1  15   0   21.60    3.80
   0  15   0    6.60    1.00
   1  15   0    9.00    2.90
   2  15   0    1.20    2.00
   3  15   0    5.10    1.50
   4  15   0   14.80    2.50
   5  15   0    0.00    5.20
   6  15   0   15.50    3.10
   7  15   0    7.40    2.60
  -6  16   0    2.40    2.50
  -5  16   0    6.30    4.90
  -4  16   0   12.30    2.20
  -3  16   0    2.90    2.00
  -2  16   0   11.60    3.30
  -1  16   0   11.60    2.50
   0  16   0   26.60    1.90
   1  16   0   23.30    3.90
   2  16   0    2.70    2.80
   3  16   0    8.70    1.80
   4  16   0    1.40    2.30
   5  16   0    0.90    2.90
  -3  17   0   73.29    4.50
  -2  17   0   27.40    3.10
  -1  17   0   52.39    4.30
   0  17   0    7.90    1.90
   1  17   0   36.60    4.30
   2  17   0    1.10    2.80
  -3 -17   1   22.00    3.80
  -2 -17   1   29.20    3.30
  -1 -17   1   43.20    9.10
   0 -17   1   12.00    2.00
   1 -17   1   66.89    6.90
   2 -17   1    6.70    2.80
   3 -17   1    3.80    2.10
  -5 -16   1   26.90    3.80
  -4 -16   1   17.40    3.40
  -3 -16   1    1.90    1.40
  -2 -16   1   23.60    5.50
  -1 -16   1   10.60    6.60
   0 -16   1   16.40    1.50
   1 -16   1   95.29    4.70
   2 -16   1   52.09    3.80
   3 -16   1    4.30    1.50
   4 -16   1   12.80    2.20
   5 -16   1   22.20    5.50
   6 -16   1   21.70    2.80
  -7 -15   1    7.30    2.30
  -6 -15   1   24.30    2.80
  -5 -15   1    3.60    2.70
  -4 -15   1    1.90    1.50
  -3 -15   1    2.90    1.10
  -2 -15   1    4.40    3.10
  -1 -15   1   13.40    2.00
   0 -15   1    1.10    0.70
   1 -15   1    0.00    2.60
   2 -15   1    3.10    3.90
   3 -15   1    1.90    1.00
   4 -15   1   15.20    2.70
   5 -15   1    6.80    3.00
   6 -15   1    3.80    2.00
   7 -15   1    2.70    3.00
  -8 -14   1    1.50    1.50
  -7 -14   1    6.60    2.40
  -6 -14   1    2.10    3.10
  -5 -14   1   20.30    1.80
  -4 -14   1    1.60    0.90
  -3 -14   1    1.30    1.30
  -2 -14   1    0.30    0.70
  -1 -14   1    2.30    1.60
   0 -14   1   13.40    1.20
   1 -14   1    7.90    2.20
   2 -14   1    9.30    1.30
   3 -14   1    4.40    1.10
   4 -14   1    2.90    1.70
   5 -14   1    0.00    2.30
   6 -14   1    2.90    2.10
   7 -14   1    1.10    2.70
   8 -14   1    4.10    1.60
   9 -14   1   21.30    1.90
  -9 -13   1   10.70    1.70
  -8 -13   1    5.50    1.70
  -7 -13   1   18.70    3.00
  -6 -13   1   14.20    2.60
  -5 -13   1   22.80    2.40
  -4 -13   1   26.80    2.40
  -3 -13   1    6.90    2.10
  -2 -13   1   13.90    1.20
  -1 -13   1   18.20    2.70
   0 -13   1    1.60    1.30
   1 -13   1   10.10    2.50
   2 -13   1   16.10    1.40
   3 -13   1   10.20    1.40
   4 -13   1   62.09    2.60
   5 -13   1   16.00    2.10
   6 -13   1    4.10    2.40
   7 -13   1    1.20    2.50
   8 -13   1    2.50    1.70
   9 -13   1    1.60    1.70
  10 -13   1    2.80    2.00
 -10 -12   1    3.40    1.50
  -9 -12   1    1.70    1.40
  -8 -12   1   32.60    3.10
  -7 -12   1   41.60    3.60
  -6 -12   1    0.00    1.80
  -5 -12   1   30.30    2.30
  -4 -12   1    4.60    2.30
  -3 -12   1  138.49    4.30
  -2 -12   1    5.80    1.10
  -1 -12   1    3.70    2.10
   0 -12   1    3.30    1.40
   1 -12   1   36.80    2.10
   2 -12   1   73.29    4.50
   3 -12   1  188.28    8.50
   4 -12   1   30.40    1.90
   5 -12   1   22.50    2.10
   6 -12   1    7.80    1.80
   7 -12   1    2.30    3.20
   8 -12   1    8.10    1.80
   9 -12   1    6.60    2.00
  10 -12   1   44.40    4.20
 -11 -11   1    7.40    2.90
 -10 -11   1    6.40    1.90
  -9 -11   1   46.10    2.70
  -8 -11   1    1.50    1.40
  -7 -11   1    1.70    1.50
  -6 -11   1    4.50    1.80
  -5 -11   1    2.50    1.20
  -4 -11   1    3.10    0.70
  -3 -11   1   54.79    1.50
  -2 -11   1   53.39    2.70
  -1 -11   1   96.89    4.00
   0 -11   1    6.20    1.40
   1 -11   1   28.50    4.00
   2 -11   1   29.70    6.20
   3 -11   1   38.10    1.60
   4 -11   1   23.50    2.20
   5 -11   1    6.00    1.60
   6 -11   1   21.30    2.90
   7 -11   1   28.30    2.80
   8 -11   1    4.00    1.80
   9 -11   1    6.50    3.20
  10 -11   1    1.70    1.00
  11 -11   1    2.80    1.90
 -12 -10   1   12.90    2.80
 -11 -10   1    3.00    1.80
 -10 -10   1    1.00    1.40
  -9 -10   1    5.00    1.20
  -8 -10   1    7.90    1.10
  -7 -10   1   14.90    2.40
  -6 -10   1   68.89    2.60
  -5 -10   1   69.79    2.80
  -4 -10   1  140.59    3.30
  -3 -10   1   84.29    1.90
  -2 -10   1  116.59    5.20
  -1 -10   1   27.70    1.60
   0 -10   1   71.69    3.40
   1 -10   1    0.00    1.60
   2 -10   1  294.27    7.40
   3 -10   1  169.08    4.80
   4 -10   1    1.60    0.60
   5 -10   1    1.60    1.80
   6 -10   1  138.59    5.40
   7 -10   1   57.29    3.10
   8 -10   1    0.00    2.30
   9 -10   1    4.30    1.10
  10 -10   1   46.70    2.10
  11 -10   1   16.70    2.80
  12 -10   1    6.20    3.10
 -12  -9   1   17.90    2.60
 -11  -9   1   19.60    1.70
 -10  -9   1   12.60    1.40
  -9  -9   1    3.10    1.20
  -8  -9   1   17.20    2.60
  -7  -9   1  208.28    9.20
  -6  -9   1    4.70    1.50
  -5  -9   1    1.30    1.40
  -4  -9   1   12.40    0.90
  -3  -9   1   10.30    0.60
  -2  -9   1   19.00    1.30
  -1  -9   1   70.49    2.60
   0  -9   1    0.00    0.80
   1  -9   1   12.40    2.80
   2  -9   1   25.40    1.30
   3  -9   1   40.40    1.50
   4  -9   1   67.49    6.00
   5  -9   1   15.80    2.50
   6  -9   1    0.00    3.40
   7  -9   1  261.87    6.00
   8  -9   1  191.78    6.20
   9  -9   1    5.10    1.20
  10  -9   1    9.60    2.20
  11  -9   1    2.60    2.50
  12  -9   1   25.60    2.70
 -13  -8   1    9.30    2.20
 -12  -8   1    2.70    1.10
 -11  -8   1    3.60    0.90
 -10  -8   1    5.50    0.90
  -9  -8   1    4.70    1.10
  -8  -8   1    5.40    1.00
  -7  -8   1  243.58   10.00
  -6  -8   1  166.78    5.80
  -5  -8   1    0.70    1.20
  -4  -8   1    8.10    0.50
  -3  -8   1   22.80    1.30
  -2  -8   1  237.98    8.70
  -1  -8   1    0.00    2.40
   0  -8   1   23.50    1.30
   1  -8   1   35.10    2.90
   2  -8   1   84.19    2.40
   3  -8   1    0.50    0.60
   4  -8   1  142.39    4.60
   5  -8   1   41.90    3.20
   6  -8   1  138.39    5.10
   7  -8   1   33.50    5.30
   8  -8   1    8.40    1.20
   9  -8   1    3.90    1.10
  10  -8   1   15.70    2.20
  11  -8   1    8.10    1.30
  12  -8   1    2.30    1.90
  13  -8   1    0.00    3.50
 -13  -7   1    4.90    1.40
 -12  -7   1   13.90    1.70
 -11  -7   1   17.20    1.50
 -10  -7   1    7.00    1.10
  -9  -7   1  102.49    2.90
  -8  -7   1    0.80    0.80
  -7  -7   1   66.69    5.10
  -6  -7   1   29.30    1.70
  -5  -7   1   23.70    1.30
  -4  -7   1   25.40    0.90
  -3  -7   1   60.19    1.30
  -2  -7   1  592.04   12.20
  -1  -7   1  239.58   12.70
   0  -7   1    1.40    0.40
   1  -7   1  267.37    6.60
   2  -7   1  493.55    6.50
   3  -7   1   50.39    1.80
   4  -7   1   10.50    0.70
   5  -7   1   19.70    1.80
   6  -7   1   44.50    2.50
   7  -7   1    1.40    1.00
   8  -7   1   53.09    1.60
   9  -7   1   19.00    1.50
  10  -7   1    9.80    1.10
  11  -7   1    4.60    1.00
  12  -7   1   33.50    2.40
  13  -7   1   16.00    4.80
 -14  -6   1   23.80    2.20
 -13  -6   1   28.60    2.20
 -12  -6   1   36.90    2.00
 -11  -6   1   15.90    1.40
 -10  -6   1   52.29    2.20
  -9  -6   1   23.20    1.40
  -8  -6   1    6.80    1.00
  -7  -6   1  496.65   11.60
  -6  -6   1    2.10    0.70
  -5  -6   1   61.89    1.50
  -4  -6   1    0.90    0.50
  -3  -6   1  133.29    2.50
  -2  -6   1    6.00    1.20
  -1  -6   1   26.90    1.40
   0  -6   1    1.10    0.30
   1  -6   1   45.60    1.30
   2  -6   1    3.80    0.40
   3  -6   1   61.89    1.40
   4  -6   1   38.80    1.00
   5  -6   1    2.30    0.80
   6  -6   1  118.19    4.10
   7  -6   1   22.00    2.40
   8  -6   1   58.39    2.10
   9  -6   1   20.40    1.40
  10  -6   1   16.60    1.10
  11  -6   1   15.20    1.40
  12  -6   1   21.60    2.10
  13  -6   1    6.90    1.30
  14  -6   1    1.00    1.50
 -14  -5   1    4.40    1.30
 -13  -5   1   14.60    1.50
 -12  -5   1   23.30    1.80
 -11  -5   1   70.29    2.50
 -10  -5   1    9.90    1.00
  -9  -5   1   75.69    2.30
  -8  -5   1    0.90    0.80
  -7  -5   1   54.19    1.60
  -6  -5   1   55.59    1.40
  -5  -5   1    7.20    0.90
  -4  -5   1    6.60    0.70
  -3  -5   1  149.88    2.70
  -2  -5   1  208.38    3.10
  -1  -5   1  227.58    3.30
   0  -5   1    0.50    0.20
   1  -5   1  180.68    3.10
   2  -5   1  278.77    3.70
   3  -5   1  335.97    5.00
   4  -5   1  442.26    6.30
   5  -5   1  172.68    3.50
   6  -5   1    0.60    0.80
   7  -5   1    1.50    1.10
   8  -5   1   51.09    2.00
   9  -5   1   23.40    1.70
  10  -5   1   13.10    1.00
  11  -5   1   58.79    1.90
  12  -5   1    2.50    0.90
  13  -5   1    3.20    1.10
  14  -5   1    5.10    2.00
 -14  -4   1   31.70    2.10
 -13  -4   1    3.20    1.20
 -12  -4   1    0.90    1.20
 -11  -4   1   10.60    1.20
 -10  -4   1   59.19    2.20
  -9  -4   1  179.18    4.40
  -8  -4   1    6.50    0.70
  -7  -4   1   27.30    1.00
  -6  -4   1  114.29    2.90
  -5  -4   1  140.89    3.00
  -4  -4   1  168.28    3.00
  -3  -4   1    1.40    0.20
  -2  -4   1  187.58    2.20
  -1  -4   1  245.88    3.30
   0  -4   1  376.86    6.40
   1  -4   1   91.39    2.00
   2  -4   1   52.09    0.90
   3  -4   1    4.20    0.30
   4  -4   1  227.98    3.50
   5  -4   1    4.80    0.60
   6  -4   1  130.39    3.00
   7  -4   1   67.89    2.40
   8  -4   1   28.50    1.50
   9  -4   1   61.59    1.70
  10  -4   1   44.80    1.60
  11  -4   1   15.10    1.30
  12  -4   1    0.80    0.80
  13  -4   1   14.60    1.80
  14  -4   1    6.10    2.10
 -14  -3   1    4.70    1.40
 -13  -3   1    4.50    1.40
 -12  -3   1   28.50    1.60
 -11  -3   1   21.50    1.40
 -10  -3   1    1.10    0.90
  -9  -3   1   18.50    1.00
  -8  -3   1   32.00    1.10
  -7  -3   1   17.30    1.10
  -6  -3   1  230.58    6.40
  -5  -3   1   83.39    2.20
  -4  -3   1  158.28   19.60
  -3  -3   1  601.34    7.40
  -2  -3   1  280.67    2.90
  -1  -3   1  173.88    2.20
   0  -3   1    6.20    0.30
   1  -3   1  150.78    2.50
   2  -3   1  109.59    1.60
   3  -3   1  625.84    7.50
   4  -3   1  629.34    6.70
   5  -3   1    0.90    0.40
   6  -3   1   17.30    1.20
   7  -3   1   46.50    2.20
   8  -3   1   38.60    2.20
   9  -3   1    9.00    1.00
  10  -3   1   21.40    1.40
  11  -3   1   70.29    2.00
  12  -3   1    7.60    1.00
  13  -3   1   23.60    2.10
  14  -3   1    4.20    1.60
 -14  -2   1    3.10    1.70
 -13  -2   1    4.60    1.30
 -12  -2   1   13.20    1.20
 -11  -2   1    1.10    0.90
 -10  -2   1   20.50    2.10
  -9  -2   1  606.54    9.60
  -8  -2   1   61.19    1.60
  -7  -2   1   17.60    1.40
  -6  -2   1  340.47   13.20
  -5  -2   1    2.70    0.70
  -4  -2   1   12.00    0.60
  -3  -2   1    1.40    0.20
  -2  -2   1    0.50    0.10
  -1  -2   1  625.84    7.80
   0  -2   1   55.89    1.20
   1  -2   1 1393.66   44.00
   2  -2   1  261.67    3.50
   3  -2   1    2.70    0.30
   4  -2   1    5.90    0.40
   5  -2   1   32.20    0.90
   6  -2   1   62.09    3.70
   7  -2   1  102.09    4.40
   8  -2   1  148.49    3.70
   9  -2   1  239.68    9.00
  10  -2   1    7.40    0.80
  11  -2   1    3.10    0.70
  12  -2   1    1.80    0.80
  13  -2   1   36.00    3.30
  14  -2   1   12.80    2.00
 -15  -1   1    7.90    1.80
 -14  -1   1   14.70    2.20
 -13  -1   1    3.80    1.60
 -12  -1   1   13.20    1.00
 -11  -1   1    0.60    1.80
 -10  -1   1   23.90    1.50
  -9  -1   1    4.60    0.70
  -8  -1   1    5.20    0.80
  -7  -1   1   70.09    3.20
  -6  -1   1  218.98   13.60
  -5  -1   1  636.24   26.20
  -4  -1   1  558.54    9.10
  -3  -1   1  373.86    4.50
  -2  -1   1  530.85    6.10
  -1  -1   1  557.04    8.20
   0  -1   1    6.50    0.60
   1  -1   1  534.15   10.60
   2  -1   1  117.89    2.10
   3  -1   1    4.30    0.40
   4  -1   1   18.00    1.00
   5  -1   1  150.78    3.40
   6  -1   1   36.00    4.20
   7  -1   1   47.90    2.20
   8  -1   1   27.10    2.10
   9  -1   1    5.30    1.30
  10  -1   1    1.30    0.60
  11  -1   1    1.40    0.70
  12  -1   1    6.80    1.70
  13  -1   1   12.20    1.80
  14  -1   1   38.30    3.30
 -15   0   1    2.60    1.60
 -14   0   1    3.90    1.90
 -13   0   1    1.20    1.10
 -12   0   1    1.90    1.90
 -11   0   1   45.30    2.30
 -10   0   1   59.99    1.60
  -9   0   1    0.90    0.50
  -8   0   1  278.37   11.20
  -7   0   1   65.09    3.00
  -6   0   1    7.60    3.00
  -5   0   1  246.68    6.30
  -4   0   1  430.96    6.40
  -3   0   1  642.74    9.90
  -2   0   1 1681.73   27.50
  -1   0   1    0.00   10.20
   1   0   1  346.17   15.70
   2   0   1 1934.41   28.40
   3   0   1  901.21   13.40
   4   0   1  403.46    6.80
   5   0   1   16.00    1.00
   6   0   1   14.80    0.90
   7   0   1   39.60    1.60
   8   0   1  111.99    7.70
   9   0   1    0.50    0.60
  10   0   1   27.60    1.70
  11   0   1   14.90    1.70
  12   0   1    9.50    2.00
  13   0   1    4.70    1.20
  14   0   1   47.60    3.30
 -15   1   1    7.90    2.40
 -14   1   1    2.70    1.50
 -13   1   1   11.20    1.90
 -12   1   1   22.40    2.30
 -11   1   1   34.90    1.50
 -10   1   1  134.59    2.80
  -9   1   1    1.70    1.10
  -8   1   1   12.00    2.00
  -7   1   1  149.59    4.70
  -6   1   1  838.02   27.90
  -5   1   1 2440.96   44.30
  -4   1   1  897.61   12.50
  -3   1   1   45.20    1.20
  -2   1   1    7.30    0.80
  -1   1   1  471.65   10.90
   0   1   1    2.20    0.30
   1   1   1  825.62   12.30
   2   1   1  294.47    3.40
   3   1   1   70.19    0.90
   4   1   1  378.26    4.50
   5   1   1   42.50    3.60
   6   1   1   11.60    4.60
   7   1   1  100.79    3.10
   8   1   1    1.20    0.80
   9   1   1   12.50    1.10
  10   1   1  178.18    3.60
  11   1   1  174.28    5.50
  12   1   1   14.00    1.40
  13   1   1   22.70    2.10
  14   1   1    6.20    1.70
 -14   2   1    3.00    1.50
 -13   2   1   16.30    2.10
 -12   2   1    3.40    1.00
 -11   2   1    1.80    0.70
 -10   2   1  124.69    2.90
  -9   2   1  221.88    7.40
  -8   2   1   20.20    1.20
  -7   2   1   18.00    2.70
  -6   2   1  121.29    4.90
  -5   2   1    8.30    0.60
  -4   2   1  506.15    6.40
  -3   2   1  577.94    6.80
  -2   2   1  281.27    4.20
  -1   2   1 3800.32   95.19
   0   2   1 2453.45   46.60
   1   2   1 3948.90   62.19
   2   2   1   36.40    0.70
   3   2   1  360.66    4.10
   4   2   1  344.97    5.10
   5   2   1  248.38    5.70
   6   2   1  222.98    7.90
   7   2   1    5.10    1.30
   8   2   1    5.50    0.70
   9   2   1  141.99    2.80
  10   2   1  101.49    3.30
  11   2   1   20.80    1.40
  12   2   1   29.80    1.70
  13   2   1    9.90    2.20
  14   2   1   67.39    3.00
 -14   3   1   24.90    2.60
 -13   3   1    3.80    1.50
 -12   3   1    3.40    0.70
 -11   3   1   79.09    2.00
 -10   3   1   32.70    1.70
  -9   3   1  114.79    3.00
  -8   3   1    6.90    0.80
  -7   3   1   33.90    3.00
  -6   3   1   56.99    2.90
  -5   3   1  157.78    2.50
  -4   3   1 1208.98   13.30
  -3   3   1    3.20    0.60
  -2   3   1   34.20    1.00
  -1   3   1  135.09    2.80
   0   3   1    3.20    0.30
   1   3   1  172.68    2.30
   2   3   1   62.89    0.90
   3   3   1  329.97    4.00
   4   3   1   37.70    1.30
   5   3   1    9.90    0.70
   6   3   1  317.17    8.80
   7   3   1   83.99    2.00
   8   3   1   63.09    1.50
   9   3   1    1.40    0.60
  10   3   1   45.00    2.50
  11   3   1  197.68    4.70
  12   3   1    6.90    1.30
  13   3   1   18.50    2.10
  14   3   1    4.70    1.20
 -14   4   1    5.10    2.50
 -13   4   1   15.60    1.60
 -12   4   1    2.10    0.90
 -11   4   1    3.10    1.10
 -10   4   1   11.20    1.20
  -9   4   1   90.89    3.20
  -8   4   1   92.49    2.60
  -7   4   1  204.98    5.40
  -6   4   1    0.10    0.90
  -5   4   1    1.60    0.40
  -4   4   1  185.38    3.10
  -3   4   1    4.50    0.40
  -2   4   1   32.50    0.90
  -1   4   1  175.78    3.10
   0   4   1 4888.51   93.39
   1   4   1  178.28    2.50
   2   4   1   11.30    0.40
   3   4   1  147.89    3.80
   4   4   1  165.18    4.10
   5   4   1  141.59    2.70
   6   4   1    1.40    0.90
   7   4   1    1.20    0.60
   8   4   1   11.50    0.80
   9   4   1   31.30    2.00
  10   4   1    5.60    1.00
  11   4   1    3.70    1.10
  12   4   1   44.80    2.30
  13   4   1   18.80    1.70
  14   4   1    2.40    1.30
 -14   5   1    7.70    1.80
 -13   5   1   52.59    2.20
 -12   5   1    6.10    1.30
 -11   5   1   86.89    2.90
 -10   5   1  130.59    3.50
  -9   5   1   63.49    2.00
  -8   5   1    2.60    0.60
  -7   5   1   11.80    0.90
  -6   5   1  147.49    3.20
  -5   5   1  172.58    4.30
  -4   5   1   78.99    4.10
  -3   5   1  125.79    3.20
  -2   5   1   72.69    1.60
  -1   5   1   79.19    1.40
   0   5   1    5.00    0.40
   1   5   1   31.10    1.00
   2   5   1  379.16    5.30
   3   5   1  161.28    4.20
   4   5   1  176.78    4.10
   5   5   1  125.09    3.20
   6   5   1   86.89    1.60
   7   5   1    1.00    0.40
   8   5   1   22.60    1.30
   9   5   1  147.49    3.60
  10   5   1   89.59    3.20
  11   5   1    8.40    1.30
  12   5   1    2.90    1.40
  13   5   1   25.50    1.90
  14   5   1    4.50    1.40
 -14   6   1    9.20    1.40
 -13   6   1   15.60    1.80
 -12   6   1    6.00    2.10
 -11   6   1    9.30    1.30
 -10   6   1   11.60    1.20
  -9   6   1   21.20    1.60
  -8   6   1  543.65    9.00
  -7   6   1  310.57    8.00
  -6   6   1   31.60    2.40
  -5   6   1   66.09    2.40
  -4   6   1   10.90    0.80
  -3   6   1  103.79    2.10
  -2   6   1    2.40    0.40
  -1   6   1  214.48    4.10
   0   6   1   16.70    0.80
   1   6   1  118.59    3.70
   2   6   1    5.80    0.60
   3   6   1   91.69    1.80
   4   6   1   26.30    1.30
   5   6   1    2.40    0.50
   6   6   1  161.38    3.20
   7   6   1   94.99    2.70
   8   6   1  128.59    4.40
   9   6   1   15.80    1.60
  10   6   1    6.50    1.40
  11   6   1    1.90    1.00
  12   6   1    5.60    1.50
  13   6   1   22.10    2.10
 -13   7   1   28.40    3.10
 -12   7   1   29.30    3.40
 -11   7   1    5.90    1.10
 -10   7   1  136.49    4.00
  -9   7   1    2.20    0.90
  -8   7   1   13.20    1.00
  -7   7   1    9.20    1.30
  -6   7   1  183.48    9.20
  -5   7   1   69.59    2.80
  -4   7   1   15.00    0.80
  -3   7   1  409.56    6.40
  -2   7   1  133.59    2.20
  -1   7   1  104.59    3.30
   0   7   1    1.60    0.40
   1   7   1   46.80    5.50
   2   7   1    2.80    0.40
   3   7   1  268.17    6.20
   4   7   1   23.60    0.80
   5   7   1   54.79    1.80
   6   7   1    6.70    1.30
   7   7   1    8.70    2.50
   8   7   1   12.50    1.40
   9   7   1   47.80    2.00
  10   7   1   23.70    1.80
  11   7   1   12.20    1.60
  12   7   1   14.30    1.60
  13   7   1    7.20    1.80
 -13   8   1    1.20    2.90
 -12   8   1    8.20    1.80
 -11   8   1   13.80    1.70
 -10   8   1   26.80    2.00
  -9   8   1    2.10    0.80
  -8   8   1  327.17    6.30
  -7   8   1  432.66   10.70
  -6   8   1   37.20    2.60
  -5   8   1   17.90    2.30
  -4   8   1  307.57    6.90
  -3   8   1   42.30    1.70
  -2   8   1  355.76    7.50
  -1   8   1   50.99    2.50
   0   8   1  290.67    8.60
   1   8   1    2.70    1.60
   2   8   1  123.99    7.80
   3   8   1  189.88    4.90
   4   8   1   95.59    2.10
   5   8   1   38.60    2.30
   6   8   1    0.00    4.00
   7   8   1   47.10    2.70
   8   8   1  202.28    6.00
   9   8   1    3.90    1.60
  10   8   1   71.69    2.70
  11   8   1    0.80    0.90
  12   8   1    3.50    1.50
  13   8   1    4.40    1.80
 -12   9   1   13.40    3.00
 -11   9   1   14.40    2.30
 -10   9   1    3.50    1.50
  -9   9   1    0.90    0.80
  -8   9   1   84.69    4.30
  -7   9   1    7.30    3.40
  -6   9   1  139.09    4.80
  -5   9   1  105.29    3.90
  -4   9   1  338.07    9.10
  -3   9   1  387.26    6.50
  -2   9   1   47.00    1.80
  -1   9   1   18.80    1.80
   0   9   1    1.10    0.70
   1   9   1    1.90    1.60
   2   9   1    6.80    1.50
   3   9   1  128.49    3.20
   4   9   1  260.37    5.20
   5   9   1  154.28    6.80
   6   9   1    6.00    5.20
   7   9   1    0.00    3.20
   8   9   1    2.90    1.40
   9   9   1   10.30    1.80
  10   9   1   12.70    1.50
  11   9   1   22.20    2.00
  12   9   1    1.80    1.70
 -12  10   1    3.50    3.40
 -11  10   1   18.90    3.60
 -10  10   1    5.70    1.20
  -9  10   1    2.30    1.10
  -8  10   1    6.60    2.10
  -7  10   1   11.40    2.20
  -6  10   1  126.69    6.60
  -5  10   1    4.40    1.30
  -4  10   1    5.40    0.80
  -3  10   1  205.78    4.30
  -2  10   1  252.87    6.40
  -1  10   1  179.98    8.80
   0  10   1   97.09    3.50
   1  10   1  381.66    9.10
   2  10   1   50.89    2.40
   3  10   1   16.30    1.80
   4  10   1    1.00    0.50
   5  10   1   14.50    1.80
   6  10   1    0.00    2.10
   7  10   1   15.40    1.40
   8  10   1   39.20    2.90
   9  10   1    8.80    1.80
  10  10   1   43.80    2.60
  11  10   1    0.80    1.60
  12  10   1    3.40    2.10
 -11  11   1    9.30    2.60
 -10  11   1    8.20    1.50
  -9  11   1   22.60    3.00
  -8  11   1    0.00    2.10
  -7  11   1   16.10    1.90
  -6  11   1   86.19    4.00
  -5  11   1  117.09    3.30
  -4  11   1  169.98    3.80
  -3  11   1  112.59    3.40
  -2  11   1   51.29    3.20
  -1  11   1   15.10    2.00
   0  11   1    4.20    0.80
   1  11   1   13.30    1.90
   2  11   1    3.70    1.10
   3  11   1  183.78    4.30
   4  11   1   18.60    1.20
   5  11   1   74.29    3.20
   6  11   1    9.60    1.90
   7  11   1    5.90    1.70
   8  11   1    6.00    2.10
   9  11   1   16.60    1.60
  10  11   1   24.40    2.60
  11  11   1    5.00    2.60
 -11  12   1   29.40    2.90
 -10  12   1    1.90    1.40
  -9  12   1   26.80    2.40
  -8  12   1   11.00    1.70
  -7  12   1   36.20    4.00
  -6  12   1    4.30    1.90
  -5  12   1   33.50    2.30
  -4  12   1   71.09    2.40
  -3  12   1  162.58    5.60
  -2  12   1   40.50    3.20
  -1  12   1  509.75   17.40
   0  12   1   34.20    3.70
   1  12   1  581.84   18.00
   2  12   1  109.19    3.50
   3  12   1   28.40    1.60
   4  12   1   28.80    2.20
   5  12   1    7.30    2.10
   6  12   1    6.60    2.00
   7  12   1   15.70    2.90
   8  12   1   14.30    1.50
   9  12   1    1.80    1.10
  10  12   1    2.90    2.00
 -10  13   1    5.80    2.00
  -9  13   1   14.20    2.00
  -8  13   1    5.60    1.30
  -7  13   1   50.29    3.50
  -6  13   1    3.50    2.00
  -5  13   1  108.29    4.20
  -4  13   1    3.60    1.30
  -3  13   1   67.59    3.40
  -2  13   1   10.00    1.80
  -1  13   1    3.30    1.30
   0  13   1    1.20    1.20
   1  13   1    8.60    1.20
   2  13   1   38.00    2.00
   3  13   1   33.60    2.80
   4  13   1   64.79    3.20
   5  13   1   10.40    2.40
   6  13   1    4.90    2.40
   7  13   1   21.00    3.00
   8  13   1   10.50    2.40
   9  13   1    3.40    1.80
  -9  14   1    8.60    1.60
  -8  14   1    1.10    1.70
  -7  14   1    2.80    3.80
  -6  14   1   18.80    2.40
  -5  14   1   58.49    3.00
  -4  14   1   17.10    1.80
  -3  14   1   17.50    1.70
  -2  14   1    1.90    1.40
  -1  14   1   16.10    4.10
   0  14   1    1.80    0.80
   1  14   1   98.99    3.00
   2  14   1   22.50    2.00
   3  14   1   71.29    3.20
   4  14   1    9.50    1.50
   5  14   1   24.20    2.60
   6  14   1    1.40    2.70
   7  14   1    4.10    2.60
   8  14   1   27.00    2.40
  -7  15   1    0.00    3.10
  -6  15   1   14.40    2.80
  -5  15   1   14.20    3.80
  -4  15   1    2.90    2.10
  -3  15   1   16.50    1.60
  -2  15   1   30.30    3.40
  -1  15   1    2.80    2.40
   0  15   1    5.20    1.10
   1  15   1    4.90    1.90
   2  15   1    6.50    3.00
   3  15   1    1.00    1.00
   4  15   1    7.90    2.20
   5  15   1    1.90    3.50
   6  15   1   19.20    2.60
   7  15   1    9.50    2.70
  -5  16   1   32.60    3.90
  -4  16   1   12.40    2.00
  -3  16   1   10.50    3.00
  -2  16   1    9.20    3.10
  -1  16   1    4.10    1.60
   0  16   1    7.20    1.40
   1  16   1    0.00    2.30
   2  16   1   12.30    2.80
   3  16   1   18.30    1.70
   4  16   1    7.70    2.20
   5  16   1    1.80    2.10
  -3  17   1   50.89    4.10
  -2  17   1    1.20    2.10
  -1  17   1    5.10    2.70
   0  17   1    0.60    1.30
   1  17   1    0.00    2.30
   2  17   1    8.00    2.60
  -2 -17   2    9.60    2.50
  -1 -17   2   25.70    3.50
   0 -17   2    4.40    2.30
   1 -17   2    2.50    3.50
   2 -17   2    0.00    2.60
   3 -17   2   23.90    2.60
  -5 -16   2   37.10    4.40
  -4 -16   2   30.00    3.40
  -3 -16   2   18.40    2.30
  -2 -16   2    5.00    4.30
  -1 -16   2  119.39   11.50
   0 -16   2   18.20    2.00
   1 -16   2  182.08    6.50
   2 -16   2   10.10    4.10
   3 -16   2   72.59    3.50
   4 -16   2   16.70    1.90
   5 -16   2   29.40    4.10
  -7 -15   2   39.20    3.30
  -6 -15   2    0.30    1.90
  -5 -15   2   14.50    2.60
  -4 -15   2   50.99    3.60
  -3 -15   2   22.50    1.70
  -2 -15   2    9.00    1.70
  -1 -15   2    7.40    1.70
   0 -15   2    6.80    1.20
   1 -15   2    0.90    2.00
   2 -15   2   24.30    2.80
   3 -15   2   31.20    1.90
   4 -15   2   34.20    3.50
   5 -15   2   12.20    5.10
   6 -15   2  109.29    5.10
   7 -15   2    4.70    2.80
  -8 -14   2    1.00    1.10
  -7 -14   2    6.40    2.50
  -6 -14   2    8.50    2.40
  -5 -14   2    8.20    2.60
  -4 -14   2   22.50    1.90
  -3 -14   2   23.00    1.80
  -2 -14   2    4.20    1.20
  -1 -14   2    0.50    1.40
   0 -14   2    2.50    0.70
   1 -14   2   14.10    2.50
   2 -14   2   12.80    1.30
   3 -14   2   37.90    1.90
   4 -14   2    5.50    1.40
   5 -14   2   37.10    3.60
   6 -14   2   32.90    3.00
   7 -14   2    2.60    2.50
   8 -14   2    7.80    3.20
  -9 -13   2    2.90    1.50
  -8 -13   2    3.10    1.40
  -7 -13   2    4.90    3.00
  -6 -13   2   15.70    2.30
  -5 -13   2   13.70    2.50
  -4 -13   2    7.20    1.20
  -3 -13   2  113.89    3.80
  -2 -13   2   13.30    1.20
  -1 -13   2    9.40    1.40
   0 -13   2    9.60    1.30
   1 -13   2   12.60    1.60
   2 -13   2   13.50    1.40
   3 -13   2   40.70    2.20
   4 -13   2   87.29    3.30
   5 -13   2    6.50    2.10
   6 -13   2    9.40    3.10
   7 -13   2    6.80    2.10
   8 -13   2   19.70    1.70
   9 -13   2    0.80    1.60
  10 -13   2   10.20    4.10
 -10 -12   2   39.40    2.90
  -9 -12   2    1.80    1.40
  -8 -12   2   14.50    1.70
  -7 -12   2    9.90    2.60
  -6 -12   2    0.00    1.60
  -5 -12   2   23.20    3.00
  -4 -12   2    9.50    2.20
  -3 -12   2    4.10    0.90
  -2 -12   2   44.40    1.60
  -1 -12   2  138.19    9.10
   0 -12   2  151.58    5.30
   1 -12   2   82.89   10.30
   2 -12   2   61.29    3.70
   3 -12   2   40.70    2.50
   4 -12   2   26.40    1.70
   5 -12   2   72.29    4.00
   6 -12   2   15.80    2.70
   7 -12   2   23.10    3.10
   8 -12   2    6.70    1.60
   9 -12   2   28.90    2.40
  10 -12   2   15.70    2.80
 -11 -11   2    4.70    2.30
 -10 -11   2   24.90    2.40
  -9 -11   2    1.10    1.20
  -8 -11   2   17.70    1.70
  -7 -11   2   40.30    2.40
  -6 -11   2   20.80    3.40
  -5 -11   2   13.90    1.90
  -4 -11   2   15.30    3.90
  -3 -11   2   93.69    2.30
  -2 -11   2   68.89    2.30
  -1 -11   2   57.59    2.40
   0 -11   2    2.50    0.80
   1 -11   2   30.90    2.50
   2 -11   2    7.80    2.30
   3 -11   2  133.49    3.90
   4 -11   2    9.50    1.10
   5 -11   2   23.40    2.10
   6 -11   2    1.10    2.20
   7 -11   2    4.70    2.00
   8 -11   2    7.40    3.10
   9 -11   2    8.80    2.10
  10 -11   2    0.00    1.30
  11 -11   2    0.30    1.70
 -12 -10   2    5.60    2.50
 -11 -10   2    3.40    1.60
 -10 -10   2    4.50    1.60
  -9 -10   2    0.50    1.20
  -8 -10   2    6.60    2.10
  -7 -10   2   37.20    2.80
  -6 -10   2   23.20    4.60
  -5 -10   2   62.29    2.00
  -4 -10   2    4.10    0.60
  -3 -10   2   57.69    2.20
  -2 -10   2   55.29    3.20
  -1 -10   2    8.30    5.90
   0 -10   2   21.90    2.20
   1 -10   2  161.38    6.70
   2 -10   2   62.89    2.10
   3 -10   2  117.59    2.50
   4 -10   2    2.90    0.70
   5 -10   2    9.40    2.00
   6 -10   2    0.00    2.70
   7 -10   2    5.60    1.50
   8 -10   2    5.00    2.40
   9 -10   2   66.19    3.30
  10 -10   2   12.30    1.50
  11 -10   2   19.40    2.90
  12 -10   2   18.20    3.60
 -12  -9   2    4.40    2.00
 -11  -9   2   57.99    3.10
 -10  -9   2   55.39    2.60
  -9  -9   2    7.10    2.60
  -8  -9   2  104.89    6.10
  -7  -9   2   60.89    4.90
  -6  -9   2   96.69    3.40
  -5  -9   2   11.00    1.70
  -4  -9   2    0.00   15.40
  -3  -9   2   69.69    3.40
  -2  -9   2    5.20    1.40
  -1  -9   2   83.89    2.50
   0  -9   2    1.30    0.60
   1  -9   2   38.20    2.50
   2  -9   2   39.40    1.50
   3  -9   2  166.68    3.40
   4  -9   2   25.20    2.90
   5  -9   2  155.48    6.20
   6  -9   2  144.89    9.20
   7  -9   2   81.89    5.50
   8  -9   2   15.70    1.40
   9  -9   2    2.70    0.80
  10  -9   2   16.40    1.60
  11  -9   2    9.50    3.50
  12  -9   2   13.70    2.10
 -13  -8   2    9.30    2.50
 -12  -8   2    5.60    1.40
 -11  -8   2    3.90    1.10
 -10  -8   2   26.90    1.50
  -9  -8   2   40.50    1.80
  -8  -8   2   88.69    5.30
  -7  -8   2   73.69    4.90
  -6  -8   2    7.20    2.20
  -5  -8   2  177.78    5.30
  -4  -8   2    7.50    0.50
  -3  -8   2  133.59    4.00
  -2  -8   2  243.78    9.70
  -1  -8   2   33.70    2.00
   0  -8   2   87.69    6.00
   1  -8   2   53.79    3.30
   2  -8   2  483.65    9.10
   3  -8   2   90.69    2.40
   4  -8   2   31.80    1.90
   5  -8   2   77.59    4.10
   6  -8   2  147.69    9.00
   7  -8   2    1.30    1.70
   8  -8   2   37.10    2.10
   9  -8   2  121.19    3.20
  10  -8   2   46.80    2.70
  11  -8   2    4.60    1.60
  12  -8   2   22.60    2.30
  13  -8   2   15.90    3.20
 -13  -7   2   11.80    1.70
 -12  -7   2   13.80    1.50
 -11  -7   2   10.80    1.10
 -10  -7   2   24.60    1.50
  -9  -7   2   10.90    1.10
  -8  -7   2    6.80    1.30
  -7  -7   2    6.90    1.30
  -6  -7   2    4.20    1.10
  -5  -7   2   42.10    1.30
  -4  -7   2   24.10    0.80
  -3  -7   2  363.16    6.50
  -2  -7   2    0.90    0.40
  -1  -7   2  262.87    9.30
   0  -7   2   11.70    0.60
   1  -7   2  137.39    5.30
   2  -7   2   26.50    0.80
   3  -7   2  150.08    2.70
   4  -7   2  237.58    4.40
   5  -7   2   48.30    2.60
   6  -7   2   49.80    2.90
   7  -7   2  178.38    4.90
   8  -7   2   11.40    1.10
   9  -7   2    1.50    0.90
  10  -7   2   14.60    1.70
  11  -7   2   10.50    1.50
  12  -7   2   16.10    2.30
  13  -7   2   26.40    4.10
 -14  -6   2    9.10    2.30
 -13  -6   2    2.70    1.10
 -12  -6   2    1.00    0.80
 -11  -6   2    1.80    0.90
 -10  -6   2   13.80    1.20
  -9  -6   2   18.50    1.30
  -8  -6   2   82.59    4.50
  -7  -6   2   75.79    2.50
  -6  -6   2  168.38    3.50
  -5  -6   2   40.30    1.10
  -4  -6   2  124.69    2.20
  -3  -6   2   33.20    1.20
  -2  -6   2   32.80    0.80
  -1  -6   2  498.15   13.30
   0  -6   2   45.50    1.10
   1  -6   2  752.02   13.80
   2  -6   2   13.80    0.60
   3  -6   2    8.30    0.60
   4  -6   2   46.40    1.20
   5  -6   2   26.90    1.40
   6  -6   2   10.20    1.10
   7  -6   2   42.30    2.20
   8  -6   2  192.98    4.00
   9  -6   2    5.30    1.20
  10  -6   2   61.59    2.00
  11  -6   2    5.80    1.10
  12  -6   2   21.60    2.30
  13  -6   2    3.20    1.70
  14  -6   2   19.80    2.10
 -14  -5   2    3.50    1.50
 -13  -5   2   43.20    2.10
 -12  -5   2   17.60    1.50
 -11  -5   2   50.69    1.70
 -10  -5   2   45.40    1.70
  -9  -5   2   41.00    1.90
  -8  -5   2   19.90    1.20
  -7  -5   2    3.20    0.80
  -6  -5   2   31.50    0.90
  -5  -5   2   55.79    1.80
  -4  -5   2  315.47    5.20
  -3  -5   2  430.26    6.80
  -2  -5   2   63.59    1.60
  -1  -5   2  443.96    6.20
   0  -5   2    0.90    0.20
   1  -5   2  316.67    5.80
   2  -5   2  321.67    4.80
   3  -5   2  172.78    3.40
   4  -5   2   41.50    1.10
   5  -5   2  182.38    4.20
   6  -5   2   82.49    2.60
   7  -5   2    3.50    0.80
   8  -5   2   56.99    1.70
   9  -5   2   54.29    1.70
  10  -5   2   75.19    2.00
  11  -5   2   28.10    1.90
  12  -5   2    4.50    1.10
  13  -5   2    9.50    1.90
  14  -5   2   23.90    2.20
 -14  -4   2    6.30    1.30
 -13  -4   2   45.70    2.50
 -12  -4   2    2.90    1.30
 -11  -4   2    0.60    0.90
 -10  -4   2   26.40    1.20
  -9  -4   2    3.30    0.80
  -8  -4   2   28.20    1.10
  -7  -4   2   58.99    1.70
  -6  -4   2  101.39    2.70
  -5  -4   2    6.00    1.10
  -4  -4   2  331.27    5.50
  -3  -4   2  498.45    6.30
  -2  -4   2  139.49    1.80
  -1  -4   2    4.70    0.30
   0  -4   2  579.54    9.40
   1  -4   2    0.10    0.30
   2  -4   2  362.56    5.10
   3  -4   2  211.28    3.30
   4  -4   2   65.39    1.30
   5  -4   2   84.79    1.70
   6  -4   2   48.80    1.70
   7  -4   2   40.50    2.30
   8  -4   2  175.68    3.90
   9  -4   2   23.20    1.00
  10  -4   2    9.80    1.00
  11  -4   2    4.50    1.00
  12  -4   2   26.70    1.40
  13  -4   2    0.70    1.20
  14  -4   2   16.10    2.80
 -14  -3   2    8.90    1.60
 -13  -3   2    2.40    1.50
 -12  -3   2    3.70    1.10
 -11  -3   2   61.29    2.20
 -10  -3   2    1.50    0.90
  -9  -3   2   77.99    1.90
  -8  -3   2    1.60    0.40
  -7  -3   2    6.70    1.00
  -6  -3   2   13.00    2.60
  -5  -3   2   22.70    0.60
  -4  -3   2   91.39    1.80
  -3  -3   2    1.40    0.30
  -2  -3   2   92.29    1.20
  -1  -3   2    3.40    0.30
   0  -3   2    0.30    0.10
   1  -3   2    0.80    0.30
   2  -3   2  123.59    2.00
   3  -3   2  325.27    4.60
   4  -3   2  251.77    3.10
   5  -3   2   96.79    1.60
   6  -3   2   59.39    1.70
   7  -3   2  146.69    5.50
   8  -3   2  138.29    3.20
   9  -3   2   15.50    1.30
  10  -3   2  225.38    5.00
  11  -3   2   26.40    1.20
  12  -3   2    1.60    0.80
  13  -3   2    3.50    1.40
  14  -3   2   23.20    2.50
 -14  -2   2   19.90    2.00
 -13  -2   2   70.09    3.40
 -12  -2   2    2.40    1.00
 -11  -2   2   14.10    1.40
 -10  -2   2   64.79    3.10
  -9  -2   2  321.57    5.40
  -8  -2   2   66.59    1.60
  -7  -2   2  101.69    3.20
  -6  -2   2  205.98    6.20
  -5  -2   2  117.29    3.50
  -4  -2   2    1.00    0.30
  -3  -2   2  304.57    3.70
  -2  -2   2  877.31    9.70
  -1  -2   2  209.68    2.90
   0  -2   2    1.80    0.20
   1  -2   2  189.08    3.20
   2  -2   2  227.58    4.70
   3  -2   2  664.93    7.50
   4  -2   2    4.00    0.30
   5  -2   2   74.09    1.50
   6  -2   2    1.40    1.10
   7  -2   2    0.00    1.70
   8  -2   2   63.59    2.40
   9  -2   2  151.18    5.40
  10  -2   2   11.70    1.10
  11  -2   2   18.30    1.00
  12  -2   2    1.40    0.70
  13  -2   2   41.40    2.40
  14  -2   2   17.00    2.30
 -15  -1   2   38.90    2.70
 -14  -1   2    2.20    1.80
 -13  -1   2   12.90    1.90
 -12  -1   2   40.90    2.10
 -11  -1   2   17.30    1.90
 -10  -1   2   13.90    1.20
  -9  -1   2    1.50    0.50
  -8  -1   2   13.00    1.20
  -7  -1   2   10.70    1.30
  -6  -1   2   99.49    3.20
  -5  -1   2    9.20    2.00
  -4  -1   2   19.50    0.50
  -3  -1   2  236.58    3.60
  -2  -1   2  129.59    2.30
  -1  -1   2  211.88    5.30
   0  -1   2    3.20    0.20
   1  -1   2  283.17   10.30
   2  -1   2   51.29    3.00
   3  -1   2   38.40    1.50
   4  -1   2   31.40    1.20
   5  -1   2   24.50    0.90
   6  -1   2  343.97   11.40
   7  -1   2   48.30    2.00
   8  -1   2   52.89    3.40
   9  -1   2   69.89    3.30
  10  -1   2   79.39    2.10
  11  -1   2   14.30    1.50
  12  -1   2   91.49    3.40
  13  -1   2    4.20    1.60
  14  -1   2   24.40    2.30
 -15   0   2   15.80    2.10
 -14   0   2   40.50    3.50
 -13   0   2    1.50    1.30
 -12   0   2   17.10    3.30
 -11   0   2   15.50    1.50
 -10   0   2  239.68    5.10
  -9   0   2    3.50    0.60
  -8   0   2   83.59    8.80
  -7   0   2    2.00    1.20
  -6   0   2    8.10    1.00
  -5   0   2  121.19    3.30
  -4   0   2  123.99    2.20
  -3   0   2  211.68    3.20
  -2   0   2  938.41   13.60
  -1   0   2  225.48    5.30
   0   0   2    7.90    0.40
   1   0   2  672.63   13.60
   2   0   2  818.42   12.80
   3   0   2    7.00    0.40
   4   0   2   11.00    0.50
   5   0   2   45.90    1.70
   6   0   2    5.20    2.00
   7   0   2  165.18   10.70
   8   0   2   86.19    7.50
   9   0   2  284.67    6.80
  10   0   2  116.29    3.20
  11   0   2   53.09    3.00
  12   0   2    7.00    2.00
  13   0   2    4.10    1.20
  14   0   2    7.10    1.70
 -15   1   2   10.20    2.20
 -14   1   2    7.30    1.90
 -13   1   2   12.30    2.60
 -12   1   2   33.80    2.10
 -11   1   2   27.70    1.60
 -10   1   2   86.89    2.30
  -9   1   2    0.90    1.20
  -8   1   2    7.00    1.90
  -7   1   2   74.59    3.40
  -6   1   2  291.47    6.30
  -5   1   2  188.28    4.40
  -4   1   2    0.90    0.30
  -3   1   2  769.22    9.90
  -2   1   2 1888.41   22.00
  -1   1   2  510.95   14.80
   0   1   2    1.60    0.20
   1   1   2  421.86   10.50
   2   1   2  955.90   11.70
   3   1   2  582.34    6.60
   4   1   2  569.54    6.50
   5   1   2   33.00    2.00
   6   1   2  214.18   11.10
   7   1   2   86.49    2.90
   8   1   2   66.09    2.60
   9   1   2  312.57    6.00
  10   1   2   70.59    2.00
  11   1   2    8.80    1.70
  12   1   2   12.50    2.10
  13   1   2   34.60    2.30
  14   1   2   14.90    2.00
 -14   2   2    3.50    1.20
 -13   2   2   34.20    3.60
 -12   2   2    1.30    0.80
 -11   2   2    2.60    0.70
 -10   2   2   73.79    2.00
  -9   2   2  390.56    8.10
  -8   2   2   65.49    2.30
  -7   2   2   55.29    2.60
  -6   2   2  106.79    4.30
  -5   2   2  581.44    8.90
  -4   2   2   26.90    0.70
  -3   2   2   27.00    0.80
  -2   2   2  608.04   10.60
  -1   2   2   23.50    1.90
   0   2   2  190.58    2.90
   1   2   2  153.88    2.50
   2   2   2  197.08    2.70
   3   2   2  108.09    1.70
   4   2   2   41.00    1.20
   5   2   2  210.68    5.70
   6   2   2   42.50    3.00
   7   2   2   96.49    2.60
   8   2   2   68.29    2.00
   9   2   2   43.40    1.60
  10   2   2    9.10    1.40
  11   2   2    5.90    1.30
  12   2   2   22.40    1.60
  13   2   2   13.50    2.10
  14   2   2   20.80    2.10
 -14   3   2   10.50    2.20
 -13   3   2    2.90    1.50
 -12   3   2    7.70    1.00
 -11   3   2   73.99    2.10
 -10   3   2   14.00    1.60
  -9   3   2   16.00    1.20
  -8   3   2  142.79    3.40
  -7   3   2   87.49    4.10
  -6   3   2  674.33   12.00
  -5   3   2   24.70    0.80
  -4   3   2  139.89    2.10
  -3   3   2  411.96    6.80
  -2   3   2   39.30    1.30
  -1   3   2   10.00    0.50
   0   3   2   32.80    0.60
   1   3   2   19.50    0.50
   2   3   2   16.80    0.50
   3   3   2    1.60    0.40
   4   3   2   46.90    2.00
   5   3   2  198.08    4.60
   6   3   2    9.50    1.30
   7   3   2   21.60    1.10
   8   3   2   83.09    1.70
   9   3   2  166.58    3.50
  10   3   2  201.98    5.10
  11   3   2   61.19    2.30
  12   3   2    7.00    1.70
  13   3   2    3.20    1.30
  14   3   2    7.80    1.40
 -14   4   2    0.90    1.90
 -13   4   2   15.10    1.60
 -12   4   2    6.30    0.90
 -11   4   2    4.90    1.30
 -10   4   2    3.70    1.00
  -9   4   2   46.60    1.90
  -8   4   2   42.10    1.70
  -7   4   2   23.30    1.10
  -6   4   2   31.10    1.20
  -5   4   2  351.16    5.00
  -4   4   2    1.10    0.50
  -3   4   2   80.09    2.20
  -2   4   2  124.89    3.70
  -1   4   2   16.10    0.80
   0   4   2   52.29    1.10
   1   4   2   47.70    0.80
   2   4   2  141.29    1.90
   3   4   2  213.08    4.70
   4   4   2   19.60    1.50
   5   4   2  141.29    3.20
   6   4   2   26.70    1.10
   7   4   2   32.50    1.00
   8   4   2   24.00    0.90
   9   4   2   46.90    2.50
  10   4   2    2.20    0.80
  11   4   2    7.20    1.30
  12   4   2   12.90    1.70
  13   4   2    5.50    1.30
  14   4   2   32.40    2.10
 -14   5   2    4.30    1.50
 -13   5   2    1.30    0.90
 -12   5   2   12.70    1.30
 -11   5   2   37.70    2.00
 -10   5   2   42.60    1.60
  -9   5   2  112.59    2.50
  -8   5   2   48.40    2.00
  -7   5   2    0.90    0.60
  -6   5   2    5.70    0.80
  -5   5   2  245.28    5.60
  -4   5   2    8.40    0.80
  -3   5   2  224.38    3.70
  -2   5   2  332.47    5.70
  -1   5   2  174.08    3.50
   0   5   2    1.10    0.30
   1   5   2  183.68    3.30
   2   5   2   16.60    1.20
   3   5   2   40.50    1.40
   4   5   2  231.48    4.60
   5   5   2   24.50    1.50
   6   5   2    4.50    0.90
   7   5   2    3.20    0.60
   8   5   2    5.70    1.10
   9   5   2    8.70    1.10
  10   5   2    1.50    0.80
  11   5   2    1.10    1.20
  12   5   2   51.19    2.90
  13   5   2    5.90    1.30
  14   5   2    2.60    1.30
 -14   6   2   11.50    1.40
 -13   6   2    8.50    1.30
 -12   6   2   33.80    2.60
 -11   6   2   21.90    2.10
 -10   6   2    6.60    1.30
  -9   6   2    7.10    1.10
  -8   6   2  216.68    4.40
  -7   6   2   89.59    3.20
  -6   6   2  123.79    3.90
  -5   6   2   14.80    1.30
  -4   6   2   19.90    0.90
  -3   6   2    4.20    0.50
  -2   6   2   37.50    1.10
  -1   6   2   13.90    0.90
   0   6   2  413.76    7.20
   1   6   2   28.70    1.20
   2   6   2   30.20    2.80
   3   6   2    5.80    0.70
   4   6   2  111.19    2.20
   5   6   2    1.90    0.40
   6   6   2  205.68    4.90
   7   6   2   54.09    1.70
   8   6   2    6.20    1.20
   9   6   2   16.70    1.10
  10   6   2    3.50    1.10
  11   6   2   15.60    1.60
  12   6   2   13.00    1.70
  13   6   2    4.60    1.50
 -13   7   2    3.20    1.80
 -12   7   2   19.50    2.40
 -11   7   2    3.10    1.20
 -10   7   2   11.30    1.20
  -9   7   2    3.70    1.00
  -8   7   2    4.10    0.80
  -7   7   2   11.40    1.30
  -6   7   2   81.69    3.30
  -5   7   2   21.50    1.90
  -4   7   2   64.19    3.00
  -3   7   2    2.40    0.60
  -2   7   2   83.39    1.60
  -1   7   2  236.58    5.20
   0   7   2    4.90    0.60
   1   7   2  145.39    8.90
   2   7   2    1.60    0.50
   3   7   2   22.30    0.80
   4   7   2  103.59    2.10
   5   7   2   31.90    1.20
   6   7   2  172.18    3.60
   7   7   2    4.50    1.20
   8   7   2    0.30    1.00
   9   7   2    5.40    1.20
  10   7   2   27.20    1.60
  11   7   2   24.20    1.70
  12   7   2   49.40    2.60
  13   7   2    2.80    1.70
 -13   8   2    2.70    2.00
 -12   8   2    4.90    1.90
 -11   8   2    5.50    1.90
 -10   8   2   91.59    3.90
  -9   8   2   55.49    2.00
  -8   8   2  229.18    5.20
  -7   8   2   46.30    2.40
  -6   8   2   47.90    4.00
  -5   8   2   46.10    2.80
  -4   8   2   10.10    1.20
  -3   8   2    7.70    0.90
  -2   8   2   70.39    2.30
  -1   8   2   95.79    5.60
   0   8   2  759.92   20.50
   1   8   2    0.00    4.10
   2   8   2   37.20    1.90
   3   8   2   80.19    2.90
   4   8   2   20.00    1.00
   5   8   2    8.00    1.20
   6   8   2   27.60    1.80
   7   8   2   87.09    3.80
   8   8   2   42.30    2.60
   9   8   2   16.10    2.60
  10   8   2    9.60    1.30
  11   8   2   12.20    1.40
  12   8   2    6.00    1.30
  13   8   2   11.60    2.00
 -12   9   2   43.90    3.00
 -11   9   2   17.90    3.00
 -10   9   2   42.30    2.80
  -9   9   2   33.50    1.90
  -8   9   2    3.00    0.90
  -7   9   2   54.39    3.10
  -6   9   2  101.39    4.60
  -5   9   2    6.60    3.70
  -4   9   2   48.40    4.10
  -3   9   2  161.88    4.00
  -2   9   2  338.77    7.60
  -1   9   2   52.99    2.80
   0   9   2    2.40    0.70
   1   9   2   14.10    2.40
   2   9   2  353.86    9.60
   3   9   2  210.48    4.30
   4   9   2   60.99    1.90
   5   9   2   66.29    3.20
   6   9   2   63.79    3.10
   7   9   2   27.60    2.00
   8   9   2   21.00    2.00
   9   9   2    4.90    2.00
  10   9   2    0.40    0.90
  11   9   2   10.10    1.50
  12   9   2   29.40    2.80
 -12  10   2    2.50    2.60
 -11  10   2    9.00    2.20
 -10  10   2   27.30    1.90
  -9  10   2    3.20    1.10
  -8  10   2   19.00    2.70
  -7  10   2    5.70    1.50
  -6  10   2   83.89    2.60
  -5  10   2   54.89    2.30
  -4  10   2    0.90    0.70
  -3  10   2   38.00    1.70
  -2  10   2   59.99    2.50
  -1  10   2  232.48    6.60
   0  10   2   23.20    1.70
   1  10   2  117.19    6.00
   2  10   2   29.10    1.70
   3  10   2   50.49    1.70
   4  10   2   27.50    1.10
   5  10   2    5.90    1.50
   6  10   2   47.60    4.40
   7  10   2   30.00    1.80
   8  10   2   19.80    2.70
   9  10   2    3.80    1.20
  10  10   2    8.50    1.40
  11  10   2    6.60    2.70
 -11  11   2   11.60    2.60
 -10  11   2   12.70    1.70
  -9  11   2    6.30    3.30
  -8  11   2    1.40    4.30
  -7  11   2   19.70    1.90
  -6  11   2   56.89    2.40
  -5  11   2   35.80    2.80
  -4  11   2   63.49    2.00
  -3  11   2   62.69    2.00
  -2  11   2   70.89    5.10
  -1  11   2   90.29    6.30
   0  11   2    1.00    0.90
   1  11   2   69.49    5.80
   2  11   2   58.99    2.70
   3  11   2   84.29    2.70
   4  11   2   62.69    2.10
   5  11   2   12.70    1.30
   6  11   2    0.00    1.60
   7  11   2    5.70    1.40
   8  11   2    6.70    1.90
   9  11   2    0.90    1.50
  10  11   2    1.80    1.20
  11  11   2   19.50    3.10
 -10  12   2   18.00    2.60
  -9  12   2    3.40    1.60
  -8  12   2    5.60    1.40
  -7  12   2    3.60    3.70
  -6  12   2    2.30    2.10
  -5  12   2    6.30    1.80
  -4  12   2    1.00    0.80
  -3  12   2    6.20    1.90
  -2  12   2  187.28    5.30
  -1  12   2   39.50    6.30
   0  12   2  388.46   13.40
   1  12   2   69.49    5.00
   2  12   2   28.80    2.80
   3  12   2   56.99    2.20
   4  12   2   29.00    3.00
   5  12   2    0.00    1.70
   6  12   2   15.30    1.90
   7  12   2  100.19    5.50
   8  12   2    3.60    1.30
   9  12   2   26.80    2.00
  10  12   2    8.80    2.10
 -10  13   2   18.20    2.10
  -9  13   2    1.90    1.40
  -8  13   2   13.50    1.80
  -7  13   2   17.00    2.80
  -6  13   2    2.80    2.60
  -5  13   2   50.29    2.70
  -4  13   2   85.09    3.80
  -3  13   2   88.29    4.00
  -2  13   2    0.20    1.50
  -1  13   2    0.10    1.30
   0  13   2    1.80    1.10
   1  13   2    6.10    1.00
   2  13   2   14.80    1.70
   3  13   2   80.99    4.30
   4  13   2    8.10    1.80
   5  13   2   86.19    4.10
   6  13   2    6.90    1.80
   7  13   2   12.70    2.20
   8  13   2    6.70    1.70
   9  13   2   37.50    2.40
  -8  14   2    8.50    1.90
  -7  14   2   15.00    3.30
  -6  14   2   45.60    2.90
  -5  14   2    4.20    1.90
  -4  14   2   49.00    2.70
  -3  14   2    2.60    1.10
  -2  14   2   52.19    2.90
  -1  14   2   21.40    2.90
   0  14   2   85.99    3.20
   1  14   2   61.19    2.80
   2  14   2   18.10    2.00
   3  14   2   15.40    1.80
   4  14   2    6.60    1.40
   5  14   2    9.60    2.00
   6  14   2    5.00    2.00
   7  14   2   76.19    4.00
   8  14   2    5.30    1.70
  -7  15   2    4.10    2.90
  -6  15   2   28.70    2.80
  -5  15   2    1.60    2.90
  -4  15   2    1.80    1.70
  -3  15   2   11.10    1.80
  -2  15   2    1.00    2.60
  -1  15   2    4.70    2.20
   0  15   2    1.30    0.80
   1  15   2    4.50    1.90
   2  15   2   30.10    7.30
   3  15   2    4.60    1.60
   4  15   2   24.00    2.80
   5  15   2    7.70    3.60
   6  15   2    0.40    1.90
   7  15   2    2.80    1.70
  -5  16   2    7.10    3.40
  -4  16   2   15.60    2.10
  -3  16   2   21.50    2.60
  -2  16   2   13.50    5.10
  -1  16   2   20.10    2.30
   0  16   2   36.00    2.50
   1  16   2    0.90    3.30
   2  16   2    0.00    5.00
   3  16   2    6.30    1.50
   4  16   2    7.90    2.00
   5  16   2   17.40    2.90
  -2  17   2    4.00    1.60
  -1  17   2    3.30    2.90
   0  17   2    1.10    1.60
   1  17   2   13.10    4.50
   2  17   2    3.80    2.40
  -2 -17   3   11.80    3.10
  -1 -17   3   13.50    3.40
   0 -17   3    6.60    1.90
   1 -17   3   14.10    3.50
   2 -17   3   67.99    4.80
  -5 -16   3   12.00    3.20
  -4 -16   3    6.30    1.90
  -3 -16   3   19.60    2.00
  -2 -16   3   28.70    3.60
  -1 -16   3    5.70    4.00
   0 -16   3    0.50    1.10
   1 -16   3    2.60    3.10
   2 -16   3   56.89    5.30
   3 -16   3   49.70    3.10
   4 -16   3    6.40    1.50
   5 -16   3   85.89    6.80
  -7 -15   3   14.00    2.30
  -6 -15   3   38.70    3.90
  -5 -15   3   10.50    3.60
  -4 -15   3    8.30    1.80
  -3 -15   3    3.10    1.10
  -2 -15   3   60.99    4.70
  -1 -15   3   54.39    3.00
   0 -15   3    1.10    0.90
   1 -15   3   38.40    3.40
   2 -15   3    2.40    2.40
   3 -15   3   31.30    2.20
   4 -15   3   14.50    2.40
   5 -15   3   19.20    4.40
   6 -15   3   19.70    2.80
   7 -15   3    8.20    2.40
  -8 -14   3    9.00    1.80
  -7 -14   3    6.70    1.90
  -6 -14   3   23.70    2.90
  -5 -14   3   41.00    3.70
  -4 -14   3    9.50    1.40
  -3 -14   3    6.60    1.50
  -2 -14   3   50.39    3.20
  -1 -14   3    0.00    1.70
   0 -14   3   46.60    2.30
   1 -14   3   11.50    2.10
   2 -14   3   14.00    3.60
   3 -14   3   10.00    1.10
   4 -14   3   11.00    1.70
   5 -14   3    1.40    1.60
   6 -14   3   32.70    3.10
   7 -14   3   40.30    3.90
   8 -14   3   44.40    4.30
  -9 -13   3    1.80    1.30
  -8 -13   3    7.40    1.40
  -7 -13   3    4.60    2.10
  -6 -13   3   11.90    2.70
  -5 -13   3    6.00    2.00
  -4 -13   3    1.30    2.40
  -3 -13   3   30.30    2.60
  -2 -13   3    4.50    1.00
  -1 -13   3    0.70    1.20
   0 -13   3    3.00    1.10
   1 -13   3   41.80    2.10
   2 -13   3   25.00    1.90
   3 -13   3    2.80    1.80
   4 -13   3   25.20    3.10
   5 -13   3   11.90    2.70
   6 -13   3    6.70    3.10
   7 -13   3    7.10    2.30
   8 -13   3   12.90    2.10
   9 -13   3    9.10    2.20
 -10 -12   3   11.20    2.20
  -9 -12   3    3.40    1.20
  -8 -12   3    1.60    1.10
  -7 -12   3    0.00    2.80
  -6 -12   3   11.00    2.20
  -5 -12   3   50.09    3.20
  -4 -12   3    8.60    1.80
  -3 -12   3    6.80    1.00
  -2 -12   3   46.40    2.40
  -1 -12   3  337.27   10.40
   0 -12   3  229.38   10.70
   1 -12   3  157.58    8.30
   2 -12   3    1.40    2.40
   3 -12   3    9.60    2.00
   4 -12   3   66.79    2.30
   5 -12   3    6.40    2.30
   6 -12   3   29.90    2.30
   7 -12   3    9.30    5.90
   8 -12   3    2.70    1.50
   9 -12   3    3.30    2.80
  10 -12   3    7.80    1.80
 -11 -11   3   12.20    3.20
 -10 -11   3    1.30    1.30
  -9 -11   3    1.20    1.00
  -8 -11   3    0.00    3.10
  -7 -11   3   14.60    1.80
  -6 -11   3   17.40    1.50
  -5 -11   3   37.00    2.50
  -4 -11   3   55.39    2.50
  -3 -11   3   10.90    1.10
  -2 -11   3  122.99    3.40
  -1 -11   3  231.28    8.40
   0 -11   3    1.40    0.80
   1 -11   3  242.18    8.30
   2 -11   3    6.90    3.10
   3 -11   3  106.49    3.20
   4 -11   3   54.19    2.10
   5 -11   3   47.00    2.50
   6 -11   3   12.10    2.00
   7 -11   3    0.00    1.60
   8 -11   3    0.40    4.80
   9 -11   3   17.80    2.80
  10 -11   3   47.50    3.00
  11 -11   3    5.10    1.80
 -12 -10   3   11.20    2.80
 -11 -10   3   29.30    2.80
 -10 -10   3   19.10    2.00
  -9 -10   3   75.19    2.90
  -8 -10   3    0.00    2.20
  -7 -10   3   11.30    1.30
  -6 -10   3   51.89    2.00
  -5 -10   3   45.00    2.00
  -4 -10   3   22.40    1.00
  -3 -10   3   60.89    1.70
  -2 -10   3   74.59    2.50
  -1 -10   3  155.08    4.80
   0 -10   3   48.90    2.40
   1 -10   3    0.00    4.30
   2 -10   3   15.90    1.50
   3 -10   3   32.80    1.40
   4 -10   3    9.50    1.00
   5 -10   3   85.39    3.40
   6 -10   3   46.80    4.00
   7 -10   3   12.40    1.40
   8 -10   3    2.10    2.70
   9 -10   3    2.00    0.90
  10 -10   3    6.70    1.60
  11 -10   3    4.30    2.50
  12 -10   3   38.70    3.50
 -12  -9   3   34.60    3.10
 -11  -9   3    4.20    1.40
 -10  -9   3    7.90    1.20
  -9  -9   3    6.00    3.10
  -8  -9   3    1.90    1.40
  -7  -9   3  177.38    5.30
  -6  -9   3  359.26    9.10
  -5  -9   3   36.90    2.50
  -4  -9   3  278.57    5.00
  -3  -9   3  218.38    4.70
  -2  -9   3  177.58    8.50
  -1  -9   3  105.99    2.90
   0  -9   3    1.60    0.60
   1  -9   3   48.90    3.20
   2  -9   3   47.40    4.90
   3  -9   3   24.80    2.10
   4  -9   3  217.48    6.10
   5  -9   3   11.80    3.10
   6  -9   3    5.80    2.60
   7  -9   3   14.70    1.90
   8  -9   3   19.40    2.20
   9  -9   3    6.90    1.00
  10  -9   3   18.40    1.40
  11  -9   3   22.10    3.40
  12  -9   3    0.00    2.10
 -13  -8   3   16.00    2.80
 -12  -8   3    2.70    1.30
 -11  -8   3    5.40    1.10
 -10  -8   3    7.80    1.20
  -9  -8   3   24.90    2.40
  -8  -8   3   58.79    3.70
  -7  -8   3   10.70    2.00
  -6  -8   3  307.07    8.90
  -5  -8   3   83.89    2.70
  -4  -8   3   23.40    0.80
  -3  -8   3    2.50    0.80
  -2  -8   3   12.10    1.30
  -1  -8   3  305.87    8.90
   0  -8   3  205.68   12.90
   1  -8   3  389.06   15.10
   2  -8   3    7.60    0.70
   3  -8   3   18.10    1.10
   4  -8   3   49.00    2.20
   5  -8   3  138.59    4.40
   6  -8   3   54.79    2.30
   7  -8   3   15.40    2.20
   8  -8   3   96.99    3.20
   9  -8   3  245.08    5.40
  10  -8   3    3.30    1.00
  11  -8   3    6.90    1.60
  12  -8   3   19.50    2.30
  13  -8   3    2.00    2.20
 -13  -7   3    3.30    1.80
 -12  -7   3    6.60    1.20
 -11  -7   3   12.40    1.40
 -10  -7   3   28.70    1.80
  -9  -7   3   13.50    1.20
  -8  -7   3   29.20    2.10
  -7  -7   3  201.08    7.20
  -6  -7   3    6.40    1.30
  -5  -7   3  144.89    3.00
  -4  -7   3  425.66    6.20
  -3  -7   3    6.80    0.60
  -2  -7   3    6.10    0.40
  -1  -7   3   70.29    4.20
   0  -7   3    2.70    0.50
   1  -7   3   26.80    2.10
   2  -7   3   44.00    1.10
   3  -7   3   23.90    1.10
   4  -7   3  268.17    4.80
   5  -7   3  186.78    4.90
   6  -7   3    7.60    2.80
   7  -7   3  107.69    2.80
   8  -7   3   24.10    1.20
   9  -7   3   26.60    1.30
  10  -7   3   16.70    1.90
  11  -7   3   12.70    1.80
  12  -7   3    1.50    2.00
  13  -7   3   15.20    3.40
 -14  -6   3    7.80    2.30
 -13  -6   3    3.00    1.30
 -12  -6   3    9.10    1.20
 -11  -6   3    2.00    1.00
 -10  -6   3   32.70    1.90
  -9  -6   3   57.29    1.90
  -8  -6   3  281.07    7.40
  -7  -6   3   41.30    2.30
  -6  -6   3    1.50    0.50
  -5  -6   3   34.00    1.00
  -4  -6   3   43.90    1.40
  -3  -6   3   42.30    1.00
  -2  -6   3  265.37    4.30
  -1  -6   3  980.70   21.10
   0  -6   3 1409.56   24.50
   1  -6   3 1248.38   24.50
   2  -6   3  757.82    9.20
   3  -6   3  179.38    3.20
   4  -6   3   16.80    0.60
   5  -6   3    3.10    0.60
   6  -6   3  270.07    5.40
   7  -6   3    3.90    1.30
   8  -6   3  157.08    3.30
   9  -6   3   18.20    1.50
  10  -6   3   20.50    1.80
  11  -6   3   33.10    2.00
  12  -6   3   10.60    2.20
  13  -6   3   32.70    2.70
 -14  -5   3    1.20    1.40
 -13  -5   3   24.80    1.80
 -12  -5   3    1.20    0.80
 -11  -5   3    4.30    1.10
 -10  -5   3  219.58    4.80
  -9  -5   3  133.39    3.50
  -8  -5   3   63.29    1.80
  -7  -5   3    8.00    0.60
  -6  -5   3   75.39    2.00
  -5  -5   3  179.28    3.90
  -4  -5   3  222.58    4.20
  -3  -5   3  102.19    2.10
  -2  -5   3  383.76    5.60
  -1  -5   3    1.50    0.40
   0  -5   3   35.80    0.90
   1  -5   3   14.60    0.60
   2  -5   3  158.58    3.50
   3  -5   3  245.28    4.70
   4  -5   3   74.99    2.90
   5  -5   3    1.00    0.60
   6  -5   3    7.60    1.00
   7  -5   3    9.90    0.90
   8  -5   3   65.09    2.30
   9  -5   3   71.99    2.20
  10  -5   3    0.80    0.90
  11  -5   3    1.50    1.10
  12  -5   3    9.00    1.50
  13  -5   3    9.70    1.50
  14  -5   3   15.80    2.00
 -14  -4   3   13.50    2.00
 -13  -4   3    2.40    1.30
 -12  -4   3   24.90    2.20
 -11  -4   3   23.40    1.20
 -10  -4   3   19.20    1.20
  -9  -4   3   96.39    2.50
  -8  -4   3  187.08    3.10
  -7  -4   3   60.99    1.80
  -6  -4   3   72.59    1.90
  -5  -4   3   74.59    2.40
  -4  -4   3  119.89    1.90
  -3  -4   3  336.07    5.20
  -2  -4   3  117.69    1.60
  -1  -4   3  531.45    8.00
   0  -4   3 1551.94   23.80
   1  -4   3  550.04    9.40
   2  -4   3  199.88    3.00
   3  -4   3  481.05    7.10
   4  -4   3    7.00    0.50
   5  -4   3    7.90    0.60
   6  -4   3    0.80    0.90
   7  -4   3   29.50    1.90
   8  -4   3   99.89    2.90
   9  -4   3  131.09    2.90
  10  -4   3   30.00    1.40
  11  -4   3   22.50    1.30
  12  -4   3    3.90    1.10
  13  -4   3    4.50    1.50
  14  -4   3    2.70    1.70
 -14  -3   3   16.00    1.90
 -13  -3   3   29.40    2.30
 -12  -3   3    1.40    1.20
 -11  -3   3   51.99    2.80
 -10  -3   3   39.10    1.90
  -9  -3   3   36.30    1.10
  -8  -3   3   88.19    1.70
  -7  -3   3  157.78    3.60
  -6  -3   3   36.20    1.80
  -5  -3   3  189.28    4.10
  -4  -3   3  208.98    3.80
  -3  -3   3   27.70    0.60
  -2  -3   3    0.50    0.20
  -1  -3   3   56.19    1.30
   0  -3   3    5.70    0.30
   1  -3   3  181.18    3.30
   2  -3   3  213.08    3.90
   3  -3   3  223.58    3.70
   4  -3   3  160.78    2.30
   5  -3   3   69.39    1.50
   6  -3   3   20.40    1.40
   7  -3   3  111.99    4.90
   8  -3   3  112.29    3.80
   9  -3   3  139.59    3.00
  10  -3   3   15.40    1.60
  11  -3   3    7.90    0.80
  12  -3   3    4.20    1.00
  13  -3   3    4.30    1.30
  14  -3   3    9.00    2.10
 -14  -2   3    3.70    1.60
 -13  -2   3    5.10    2.20
 -12  -2   3    7.40    1.40
 -11  -2   3    6.30    1.30
 -10  -2   3   47.10    1.80
  -9  -2   3  118.59    2.90
  -8  -2   3   10.10    0.80
  -7  -2   3   12.50    1.30
  -6  -2   3   50.49    1.80
  -5  -2   3  320.17    5.80
  -4  -2   3   15.90    0.70
  -3  -2   3  176.08    2.50
  -2  -2   3 1485.45   18.00
  -1  -2   3   10.60    0.60
   0  -2   3  272.37    8.90
   1  -2   3   23.20    1.40
   2  -2   3  899.51   18.00
   3  -2   3   53.29    1.50
   4  -2   3   32.70    0.80
   5  -2   3    3.10    0.60
   6  -2   3   57.79    1.80
   7  -2   3    0.00    1.70
   8  -2   3   94.89    3.50
   9  -2   3    0.70    0.80
  10  -2   3   29.50    1.40
  11  -2   3   35.20    1.40
  12  -2   3    0.70    0.70
  13  -2   3   22.30    2.00
  14  -2   3    2.40    1.70
 -14  -1   3   39.30    3.90
 -13  -1   3   35.50    2.70
 -12  -1   3    3.90    1.20
 -11  -1   3   71.09    3.90
 -10  -1   3    0.70    0.70
  -9  -1   3   55.09    2.10
  -8  -1   3    1.00    0.70
  -7  -1   3    5.40    1.30
  -6  -1   3  199.78    8.90
  -5  -1   3    7.60    1.30
  -4  -1   3    6.60    0.80
  -3  -1   3  206.08    2.90
  -2  -1   3  234.08    6.20
  -1  -1   3 1286.57   45.90
   0  -1   3   30.20    1.10
   1  -1   3 2230.38   61.39
   2  -1   3  721.03   41.50
   3  -1   3  466.75    5.40
   4  -1   3  136.09    2.40
   5  -1   3  181.38    4.60
   6  -1   3  125.29    5.40
   7  -1   3   79.39    7.60
   8  -1   3   26.40    1.90
   9  -1   3   77.09    3.70
  10  -1   3    6.10    0.80
  11  -1   3   75.99    2.60
  12  -1   3   64.79    3.30
  13  -1   3   29.50    2.20
  14  -1   3   24.10    2.20
 -15   0   3   28.50    2.80
 -14   0   3   23.60    3.90
 -13   0   3    0.90    1.10
 -12   0   3    3.90    2.80
 -11   0   3   23.60    2.70
 -10   0   3   59.59    2.00
  -9   0   3  231.68    6.00
  -8   0   3  146.19    6.60
  -7   0   3  355.26   10.40
  -6   0   3   79.89    2.00
  -5   0   3   37.00    1.70
  -4   0   3   46.70    0.90
  -3   0   3  298.67    4.70
  -2   0   3  665.03    9.40
  -1   0   3  228.08    6.80
   0   0   3 4202.58  371.56
   1   0   3  287.17    7.40
   2   0   3 2374.56   36.80
   3   0   3  116.49    2.20
   4   0   3   16.30    0.50
   5   0   3    2.00    0.50
   6   0   3    0.00    1.30
   7   0   3   28.50    1.10
   8   0   3    0.00    2.30
   9   0   3   22.10    1.30
  10   0   3   93.99    2.70
  11   0   3    0.10    1.20
  12   0   3    9.40    1.70
  13   0   3    7.30    1.60
  14   0   3    3.10    1.70
 -14   1   3   10.40    2.30
 -13   1   3   36.20    2.50
 -12   1   3    7.60    1.60
 -11   1   3   89.19    2.60
 -10   1   3   14.40    1.10
  -9   1   3  351.46    9.10
  -8   1   3   87.29    4.20
  -7   1   3   35.80    2.80
  -6   1   3  423.96   13.80
  -5   1   3  104.09    2.60
  -4   1   3  256.37    3.20
  -3   1   3  148.09    2.50
  -2   1   3 3175.18   43.20
  -1   1   3 1934.51   62.29
   0   1   3   57.49    1.60
   1   1   3 1568.14   57.89
   2   1   3 3729.83   49.70
   3   1   3    1.70    0.40
   4   1   3  179.78    3.10
   5   1   3  220.98   10.40
   6   1   3  110.29    5.50
   7   1   3   87.29    6.90
   8   1   3   88.99    3.20
   9   1   3   57.19    1.80
  10   1   3    3.10    0.90
  11   1   3   73.89    3.90
  12   1   3   16.10    1.80
  13   1   3   37.60    2.50
  14   1   3    6.70    1.60
 -14   2   3   30.90    2.00
 -13   2   3    2.40    2.10
 -12   2   3   21.10    1.40
 -11   2   3   45.30    1.60
 -10   2   3    3.00    0.90
  -9   2   3  199.28    5.60
  -8   2   3  119.89    3.40
  -7   2   3   43.70    3.10
  -6   2   3  116.19    3.40
  -5   2   3    1.90    0.50
  -4   2   3  157.28    2.60
  -3   2   3  334.07    4.70
  -2   2   3  419.76   14.30
  -1   2   3   34.70    2.10
   0   2   3 9999.00  308.77
   1   2   3  397.86    6.30
   2   2   3   14.30    0.70
   3   2   3 1451.85   16.20
   4   2   3    0.00    0.80
   5   2   3  167.08    3.80
   6   2   3   16.00    1.30
   7   2   3   14.00    1.90
   8   2   3  455.55    7.10
   9   2   3    3.10    0.60
  10   2   3  305.57    5.40
  11   2   3    5.30    1.10
  12   2   3    4.90    1.20
  13   2   3    7.90    2.20
  14   2   3   10.10    1.70
 -14   3   3    3.90    1.70
 -13   3   3   13.60    2.20
 -12   3   3   23.80    1.50
 -11   3   3   15.40    1.10
 -10   3   3  134.99    4.30
  -9   3   3   67.09    2.30
  -8   3   3   74.79    2.60
  -7   3   3    9.90    2.70
  -6   3   3    9.80    0.80
  -5   3   3  279.07    4.20
  -4   3   3  159.78    2.40
  -3   3   3  491.35    6.90
  -2   3   3  315.67    5.90
  -1   3   3   17.70    1.10
   0   3   3    0.90    0.20
   1   3   3    1.70    0.40
   2   3   3  378.56    4.90
   3   3   3  788.02   10.20
   4   3   3  190.38    5.40
   5   3   3  515.05    9.60
   6   3   3  155.68    3.70
   7   3   3  523.95    9.70
   8   3   3  170.68    3.00
   9   3   3   27.90    1.40
  10   3   3   22.90    1.70
  11   3   3    3.30    1.00
  12   3   3    1.40    1.20
  13   3   3    6.30    2.00
  14   3   3    1.00    1.10
 -14   4   3    6.60    2.60
 -13   4   3    3.00    1.10
 -12   4   3    4.20    0.90
 -11   4   3    3.30    1.30
 -10   4   3    6.30    1.10
  -9   4   3   49.00    1.80
  -8   4   3   57.79    2.80
  -7   4   3   10.70    1.40
  -6   4   3    0.00    0.70
  -5   4   3   59.59    1.40
  -4   4   3  221.78    3.30
  -3   4   3  337.07    6.50
  -2   4   3   72.59    2.10
  -1   4   3    1.80    0.50
   0   4   3  274.97    4.40
   1   4   3    6.10    0.60
   2   4   3   25.10    0.70
   3   4   3    1.10    0.40
   4   4   3  406.56    6.50
   5   4   3  675.93   11.40
   6   4   3    2.80    0.70
   7   4   3    3.10    0.80
   8   4   3   35.10    1.20
   9   4   3   61.89    2.60
  10   4   3    3.90    1.00
  11   4   3    6.90    1.30
  12   4   3   44.80    2.20
  13   4   3    3.00    1.20
  14   4   3    1.50    1.20
 -14   5   3    5.20    1.60
 -13   5   3   13.60    1.60
 -12   5   3   35.00    2.00
 -11   5   3    4.10    1.40
 -10   5   3   36.00    1.80
  -9   5   3   25.40    1.50
  -8   5   3   11.50    1.00
  -7   5   3    7.80    0.80
  -6   5   3    6.40    0.70
  -5   5   3   31.60    1.30
  -4   5   3  306.57    5.50
  -3   5   3  350.26    6.00
  -2   5   3  587.64    9.50
  -1   5   3  141.09    3.10
   0   5   3   16.40    0.70
   1   5   3  244.08    4.00
   2   5   3  467.05    6.80
   3   5   3  312.67    5.40
   4   5   3   85.59    1.80
   5   5   3   14.10    1.20
   6   5   3   18.10    1.20
   7   5   3    4.90    0.60
   8   5   3   35.20    1.60
   9   5   3   14.30    1.10
  10   5   3   23.80    1.30
  11   5   3    4.80    1.30
  12   5   3    5.20    1.40
  13   5   3   30.00    2.00
  14   5   3    3.60    1.30
 -14   6   3    1.00    1.20
 -13   6   3   26.10    2.10
 -12   6   3    8.90    1.80
 -11   6   3    7.90    1.20
 -10   6   3   27.00    1.50
  -9   6   3    3.40    0.60
  -8   6   3    3.00    0.60
  -7   6   3   16.50    1.40
  -6   6   3  368.46    7.60
  -5   6   3    3.00    0.70
  -4   6   3   15.30    0.80
  -3   6   3  151.98    3.10
  -2   6   3   22.90    0.80
  -1   6   3  252.27    4.20
   0   6   3 1007.50   16.20
   1   6   3  127.19    4.30
   2   6   3   89.39    3.30
   3   6   3  278.87    5.60
   4   6   3   19.90    1.20
   5   6   3    1.00    0.40
   6   6   3   27.40    1.70
   7   6   3   91.99    3.20
   8   6   3   16.80    1.60
   9   6   3   29.50    1.50
  10   6   3   31.50    1.20
  11   6   3    2.00    0.90
  12   6   3   43.70    2.40
  13   6   3    2.50    1.50
 -13   7   3    2.80    2.20
 -12   7   3    0.00    1.90
 -11   7   3    5.10    1.10
 -10   7   3    8.70    1.30
  -9   7   3    4.40    1.00
  -8   7   3    2.20    0.60
  -7   7   3    1.40    1.00
  -6   7   3    0.00    3.70
  -5   7   3   41.00    3.20
  -4   7   3  161.68    3.80
  -3   7   3    8.80    0.80
  -2   7   3  161.68    2.70
  -1   7   3   34.50    1.40
   0   7   3    4.30    0.60
   1   7   3   13.90    2.30
   2   7   3   98.89    2.50
   3   7   3   43.10    2.60
   4   7   3   13.40    0.80
   5   7   3   39.10    1.10
   6   7   3  224.48    6.00
   7   7   3  150.88    6.60
   8   7   3   78.29    2.10
   9   7   3   30.80    1.90
  10   7   3    3.30    1.10
  11   7   3    4.10    1.30
  12   7   3   17.10    1.80
  13   7   3   29.40    2.80
 -13   8   3    0.70    2.00
 -12   8   3    3.80    2.10
 -11   8   3   20.40    1.70
 -10   8   3    6.30    1.50
  -9   8   3   37.10    2.20
  -8   8   3    9.80    1.30
  -7   8   3   84.09    3.40
  -6   8   3    2.20    2.00
  -5   8   3   49.20    3.40
  -4   8   3    4.50    1.10
  -3   8   3   52.89    2.00
  -2   8   3  127.79    3.60
  -1   8   3   57.29    3.50
   0   8   3  149.19    4.80
   1   8   3   22.70    2.10
   2   8   3  120.09    4.00
   3   8   3    8.90    1.70
   4   8   3    9.80    0.90
   5   8   3  145.29    4.60
   6   8   3    2.70    1.70
   7   8   3   17.50    3.10
   8   8   3   94.89    3.30
   9   8   3    4.00    1.30
  10   8   3   14.20    1.70
  11   8   3    1.60    1.30
  12   8   3   10.10    1.70
 -12   9   3   25.90    2.20
 -11   9   3    6.50    2.00
 -10   9   3    5.50    1.60
  -9   9   3    4.80    1.00
  -8   9   3    1.50    1.10
  -7   9   3    0.00    1.80
  -6   9   3   22.70    2.50
  -5   9   3   48.10    3.20
  -4   9   3   27.50    1.90
  -3   9   3   14.10    1.30
  -2   9   3    5.70    1.10
  -1   9   3    6.00    2.10
   0   9   3    1.20    0.60
   1   9   3   34.40    1.80
   2   9   3   89.29    4.50
   3   9   3  228.78    4.00
   4   9   3   34.30    1.50
   5   9   3    4.30    1.50
   6   9   3  424.36    9.50
   7   9   3  189.88    6.70
   8   9   3    8.30    1.80
   9   9   3    6.80    2.60
  10   9   3   36.80    2.40
  11   9   3   63.09    2.70
  12   9   3    3.60    2.00
 -12  10   3   14.60    2.40
 -11  10   3    1.40    1.90
 -10  10   3    8.90    1.40
  -9  10   3   25.30    2.60
  -8  10   3   10.50    2.80
  -7  10   3    5.50    1.60
  -6  10   3  158.58    4.90
  -5  10   3    5.30    1.80
  -4  10   3    9.10    1.00
  -3  10   3   87.79    2.60
  -2  10   3   35.90    4.00
  -1  10   3   18.50    1.90
   0  10   3   12.40    1.10
   1  10   3   12.20    1.70
   2  10   3   38.00    2.10
   3  10   3   15.20    1.10
   4  10   3    1.30    0.50
   5  10   3   10.00    1.60
   6  10   3   11.70    1.10
   7  10   3    0.10    1.40
   8  10   3    0.00    1.90
   9  10   3   65.89    3.20
  10  10   3   11.80    1.60
  11  10   3   27.40    2.90
 -11  11   3    5.10    1.80
 -10  11   3    1.90    1.10
  -9  11   3   13.90    3.30
  -8  11   3    6.20    2.30
  -7  11   3    2.90    1.50
  -6  11   3   13.10    1.70
  -5  11   3    0.10    1.20
  -4  11   3    1.30    0.80
  -3  11   3    0.40    0.70
  -2  11   3   57.69    3.80
  -1  11   3    9.30    6.30
   0  11   3   12.90    1.40
   1  11   3  203.58    6.60
   2  11   3  158.48    4.40
   3  11   3   38.90    1.40
   4  11   3  151.38    3.60
   5  11   3   48.30    2.20
   6  11   3    0.00    1.20
   7  11   3   28.30    2.10
   8  11   3   15.90    2.10
   9  11   3    2.10    1.40
  10  11   3    2.80    1.50
  11  11   3   79.99    4.50
 -10  12   3   15.10    1.80
  -9  12   3    7.50    1.80
  -8  12   3    1.80    1.10
  -7  12   3   74.19    6.70
  -6  12   3    0.30    2.00
  -5  12   3   10.40    1.70
  -4  12   3    2.80    0.90
  -3  12   3   87.79    4.40
  -2  12   3    7.10    2.10
  -1  12   3    4.80    2.70
   0  12   3   73.19    4.00
   1  12   3   37.90    2.50
   2  12   3    3.10    1.00
   3  12   3   19.70    1.60
   4  12   3   46.70    3.10
   5  12   3    1.80    1.50
   6  12   3   74.09    4.70
   7  12   3   32.60    3.40
   8  12   3   52.29    3.00
   9  12   3    5.60    1.40
  10  12   3   34.30    3.30
  -9  13   3   38.10    2.10
  -8  13   3    8.40    1.90
  -7  13   3    0.90    2.60
  -6  13   3    1.60    1.80
  -5  13   3   12.60    2.20
  -4  13   3   74.99    2.70
  -3  13   3    2.00    1.80
  -2  13   3    7.00    1.40
  -1  13   3    0.00    1.40
   0  13   3    7.90    1.30
   1  13   3    4.10    1.50
   2  13   3    3.40    1.30
   3  13   3   40.80    2.90
   4  13   3   11.50    1.50
   5  13   3   59.19    4.70
   6  13   3   11.00    2.70
   7  13   3    4.30    2.20
   8  13   3    4.20    1.40
   9  13   3    1.80    1.30
  -8  14   3    1.40    2.00
  -7  14   3   22.50    4.80
  -6  14   3    2.90    1.70
  -5  14   3    3.50    1.60
  -4  14   3    1.00    1.50
  -3  14   3    1.90    1.20
  -2  14   3   34.00    2.20
  -1  14   3    7.60    2.30
   0  14   3   28.00    1.80
   1  14   3   14.70    1.80
   2  14   3   20.20    2.00
   3  14   3   15.00    1.60
   4  14   3   17.60    1.90
   5  14   3    8.30    2.40
   6  14   3   30.60    3.20
   7  14   3  103.19    7.30
   8  14   3   11.00    1.80
  -7  15   3    1.00    2.00
  -6  15   3   14.10    2.20
  -5  15   3    3.50    2.70
  -4  15   3   34.30    2.60
  -3  15   3    8.00    1.30
  -2  15   3    4.10    2.70
  -1  15   3   14.70    2.20
   0  15   3    0.10    0.90
   1  15   3    7.50    1.70
   2  15   3   11.10    3.80
   3  15   3   43.90    2.70
   4  15   3    3.50    1.60
   5  15   3   12.20    4.90
   6  15   3    7.40    2.10
  -5  16   3    8.90    3.50
  -4  16   3    0.80    1.40
  -3  16   3    4.90    1.80
  -2  16   3   16.50   12.00
  -1  16   3    9.80    1.80
   0  16   3    2.00    1.20
   1  16   3    1.40    2.50
   2  16   3    0.00   17.50
   3  16   3    4.40    1.40
   4  16   3    4.40    2.00
  -1  17   3    5.30    1.70
   0  17   3    1.00    1.30
   1  17   3   10.70    2.50
  -2 -17   4   31.40    4.70
  -1 -17   4   51.29    4.90
   0 -17   4    1.40    1.80
   1 -17   4   33.40    4.90
   2 -17   4   58.69    5.90
  -5 -16   4   41.30    4.80
  -4 -16   4    2.30    1.70
  -3 -16   4    2.80    1.40
  -2 -16   4   31.10    4.90
  -1 -16   4    0.00    2.60
   0 -16   4   31.60    2.90
   1 -16   4   14.90    2.20
   2 -16   4    8.00    4.40
   3 -16   4   34.20    2.40
   4 -16   4    1.90    1.10
   5 -16   4   46.60    6.00
  -7 -15   4    0.00    1.90
  -6 -15   4   22.60    2.60
  -5 -15   4    1.70    3.50
  -4 -15   4   53.59    3.10
  -3 -15   4    2.20    1.60
  -2 -15   4    1.20    3.40
  -1 -15   4   24.90    2.40
   0 -15   4    2.70    1.00
   1 -15   4   49.60    3.50
   2 -15   4    7.20    2.80
   3 -15   4    6.50    1.30
   4 -15   4    6.60    2.10
   5 -15   4    1.60    6.30
   6 -15   4    2.40    2.20
   7 -15   4   32.10    2.30
  -8 -14   4    9.30    1.80
  -7 -14   4   10.30    2.40
  -6 -14   4   30.60    3.00
  -5 -14   4   15.00    2.70
  -4 -14   4    3.30    1.50
  -3 -14   4    1.30    1.20
  -2 -14   4    2.20    1.70
  -1 -14   4   16.20    2.10
   0 -14   4    9.60    1.20
   1 -14   4   29.30    2.70
   2 -14   4    7.20    2.30
   3 -14   4    1.90    1.10
   4 -14   4    2.70    1.50
   5 -14   4    3.50    2.40
   6 -14   4    2.90    2.30
   7 -14   4   31.30    6.20
   8 -14   4   12.30    4.20
  -9 -13   4    3.10    1.30
  -8 -13   4    4.50    1.40
  -7 -13   4    1.50    1.80
  -6 -13   4   18.50    2.40
  -5 -13   4    8.70    3.20
  -4 -13   4   24.70    2.60
  -3 -13   4    3.60    1.70
  -2 -13   4   42.30    2.10
  -1 -13   4    0.10    1.60
   0 -13   4   11.50    1.30
   1 -13   4   15.20    1.60
   2 -13   4   15.00    2.00
   3 -13   4    6.20    1.90
   4 -13   4    2.20    1.60
   5 -13   4    0.00    2.70
   6 -13   4   10.70    3.00
   7 -13   4    0.00    2.50
   8 -13   4   28.60    2.50
   9 -13   4    3.70    1.70
 -10 -12   4   30.70    2.80
  -9 -12   4   13.20    1.80
  -8 -12   4   13.20    2.10
  -7 -12   4   10.70    3.50
  -6 -12   4    6.20    2.00
  -5 -12   4   54.19    2.30
  -4 -12   4   78.19    3.40
  -3 -12   4   10.40    1.50
  -2 -12   4   41.80    2.10
  -1 -12   4   89.19    4.30
   0 -12   4  110.09    4.60
   1 -12   4  110.09    4.30
   2 -12   4   44.60    2.80
   3 -12   4    5.00    2.30
   4 -12   4    2.30    1.00
   5 -12   4   69.69    2.50
   6 -12   4   58.99    3.90
   7 -12   4   22.70    5.00
   8 -12   4   17.80    3.80
   9 -12   4   11.70    3.40
  10 -12   4    9.40    2.50
 -11 -11   4   15.10    3.70
 -10 -11   4    6.70    1.70
  -9 -11   4   29.00    3.30
  -8 -11   4    9.00    1.80
  -7 -11   4    3.30    1.40
  -6 -11   4   14.30    1.80
  -5 -11   4    0.00    1.80
  -4 -11   4    1.10    1.20
  -3 -11   4    1.70    0.70
  -2 -11   4  111.39    3.30
  -1 -11   4   23.00    6.60
   0 -11   4   28.10    1.60
   1 -11   4  348.07    7.20
   2 -11   4   86.19    4.30
   3 -11   4    4.50    1.00
   4 -11   4    8.80    1.10
   5 -11   4   66.79    2.50
   6 -11   4    0.00    1.90
   7 -11   4   24.80    2.50
   8 -11   4    7.90    2.70
   9 -11   4   39.70    5.20
  10 -11   4   23.50    2.80
  11 -11   4    5.00    2.50
 -12 -10   4   20.60    3.10
 -11 -10   4   12.50    2.50
 -10 -10   4   13.50    2.10
  -9 -10   4   10.60    1.40
  -8 -10   4   26.10    2.30
  -7 -10   4    0.00    1.40
  -6 -10   4   61.49    3.30
  -5 -10   4   55.09    2.70
  -4 -10   4   32.20    1.20
  -3 -10   4   94.09    2.50
  -2 -10   4  177.28    4.70
  -1 -10   4   36.70    1.80
   0 -10   4    7.70    0.90
   1 -10   4   19.60    2.00
   2 -10   4   91.09    3.40
   3 -10   4   11.30    0.90
   4 -10   4   10.10    1.10
   5 -10   4   53.19    2.30
   6 -10   4   21.60    1.70
   7 -10   4   12.90    1.60
   8 -10   4   18.30    1.40
   9 -10   4    0.80    1.50
  10 -10   4    3.50    1.70
  11 -10   4   24.10    3.70
 -12  -9   4   13.40    2.20
 -11  -9   4    8.20    1.70
 -10  -9   4    1.30    1.10
  -9  -9   4    0.50    1.00
  -8  -9   4    1.40    1.60
  -7  -9   4    0.30    1.60
  -6  -9   4   75.09    2.80
  -5  -9   4   25.10    2.70
  -4  -9   4   17.50    0.90
  -3  -9   4   83.99    2.20
  -2  -9   4   32.60    3.00
  -1  -9   4   56.69    2.80
   0  -9   4    1.10    0.60
   1  -9   4  107.79    3.30
   2  -9   4   69.19    2.70
   3  -9   4    7.00    3.00
   4  -9   4   49.10    2.70
   5  -9   4   28.40    2.30
   6  -9   4  106.09    6.90
   7  -9   4   29.20    4.30
   8  -9   4   20.10    1.20
   9  -9   4  177.38    5.90
  10  -9   4   78.69    3.50
  11  -9   4    7.90    2.50
  12  -9   4   11.60    2.60
 -13  -8   4    7.40    2.80
 -12  -8   4    4.00    1.60
 -11  -8   4   39.50    2.00
 -10  -8   4    3.20    1.60
  -9  -8   4  152.18    5.00
  -8  -8   4  108.59    3.70
  -7  -8   4    6.50    2.00
  -6  -8   4    2.80    1.70
  -5  -8   4    6.70    1.70
  -4  -8   4   15.60    0.80
  -3  -8   4   30.60    2.00
  -2  -8   4   55.59    3.40
  -1  -8   4   27.30    1.90
   0  -8   4   67.09    3.40
   1  -8   4   27.20    2.70
   2  -8   4    0.90    0.40
   3  -8   4   25.90    1.20
   4  -8   4   53.39    2.60
   5  -8   4   23.20    2.50
   6  -8   4   14.70    2.40
   7  -8   4   25.10    3.20
   8  -8   4   12.20    1.70
   9  -8   4    9.50    1.60
  10  -8   4    2.20    2.40
  11  -8   4    3.80    1.80
  12  -8   4   65.39    3.50
  13  -8   4   28.70    3.10
 -13  -7   4   22.90    2.90
 -12  -7   4   10.60    1.60
 -11  -7   4    5.90    1.10
 -10  -7   4   10.20    1.50
  -9  -7   4   21.40    1.20
  -8  -7   4    1.80    1.00
  -7  -7   4    2.30    2.10
  -6  -7   4  122.49    3.00
  -5  -7   4   40.10    1.50
  -4  -7   4  102.39    1.80
  -3  -7   4  288.47    5.00
  -2  -7   4   70.49    1.70
  -1  -7   4  188.68    6.60
   0  -7   4    0.80    0.40
   1  -7   4  204.88    4.90
   2  -7   4   15.00    0.70
   3  -7   4  369.36    6.70
   4  -7   4  150.68    3.00
   5  -7   4   38.60    1.40
   6  -7   4   21.40    3.80
   7  -7   4   14.90    1.90
   8  -7   4   26.70    1.80
   9  -7   4    8.00    1.20
  10  -7   4   14.80    2.50
  11  -7   4    3.70    1.40
  12  -7   4   24.70    2.80
  13  -7   4   12.50    3.20
 -13  -6   4    4.80    1.50
 -12  -6   4   15.10    1.60
 -11  -6   4    2.00    1.00
 -10  -6   4    2.00    1.00
  -9  -6   4   20.10    1.20
  -8  -6   4   55.19    2.10
  -7  -6   4   18.70    1.10
  -6  -6   4   78.89    2.70
  -5  -6   4  119.99    2.10
  -4  -6   4   65.59    1.40
  -3  -6   4  113.59    3.20
  -2  -6   4  318.07    5.10
  -1  -6   4   35.60    1.40
   0  -6   4 1129.09   19.90
   1  -6   4   14.20    0.90
   2  -6   4  107.09    1.80
   3  -6   4   81.59    2.30
   4  -6   4  188.88    3.10
   5  -6   4   36.70    1.30
   6  -6   4  142.69    3.80
   7  -6   4   71.59    3.40
   8  -6   4  124.49    3.20
   9  -6   4   32.70    2.00
  10  -6   4   25.20    1.70
  11  -6   4    6.50    1.70
  12  -6   4   22.00    2.90
  13  -6   4    2.20    1.40
 -14  -5   4    6.50    1.50
 -13  -5   4    2.50    1.40
 -12  -5   4    1.30    1.10
 -11  -5   4   19.60    1.50
 -10  -5   4   10.00    1.00
  -9  -5   4   51.99    1.80
  -8  -5   4    1.90    1.00
  -7  -5   4   19.90    1.30
  -6  -5   4   48.60    1.30
  -5  -5   4   31.00    1.20
  -4  -5   4   22.60    1.00
  -3  -5   4  113.99    3.40
  -2  -5   4    8.20    0.80
  -1  -5   4   12.00    0.60
   0  -5   4   16.50    0.60
   1  -5   4   14.00    0.70
   2  -5   4    2.90    0.50
   3  -5   4  123.69    2.30
   4  -5   4    6.00    0.50
   5  -5   4    3.20    0.80
   6  -5   4   14.70    1.30
   7  -5   4    0.50    0.90
   8  -5   4   41.30    1.70
   9  -5   4   60.29    2.00
  10  -5   4    3.20    0.80
  11  -5   4    2.70    0.90
  12  -5   4   10.20    1.50
  13  -5   4    5.10    1.80
  14  -5   4    2.00    1.60
 -14  -4   4    3.60    1.50
 -13  -4   4    2.00    1.20
 -12  -4   4    5.40    1.50
 -11  -4   4   41.80    1.80
 -10  -4   4    9.50    1.00
  -9  -4   4  173.18    3.60
  -8  -4   4   89.69    2.10
  -7  -4   4   27.60    1.30
  -6  -4   4   49.50    1.40
  -5  -4   4   46.80    3.80
  -4  -4   4  131.69    3.90
  -3  -4   4    2.70    0.30
  -2  -4   4    1.00    0.20
  -1  -4   4  473.65    6.40
   0  -4   4  146.89    2.60
   1  -4   4  191.38    4.80
   2  -4   4   67.49    3.10
   3  -4   4  602.34   10.10
   4  -4   4  218.48    3.80
   5  -4   4   16.50    0.80
   6  -4   4   69.39    1.70
   7  -4   4  124.09    3.60
   8  -4   4   59.69    2.20
   9  -4   4  270.77    4.90
  10  -4   4   11.10    1.00
  11  -4   4   18.90    1.60
  12  -4   4    4.20    1.10
  13  -4   4    1.30    1.40
  14  -4   4    2.50    2.00
 -14  -3   4   32.10    2.40
 -13  -3   4    5.90    1.70
 -12  -3   4   46.50    2.30
 -11  -3   4   31.50    2.00
 -10  -3   4   85.09    3.80
  -9  -3   4  219.68    4.10
  -8  -3   4   66.39    1.70
  -7  -3   4   84.19    2.90
  -6  -3   4   14.40    2.70
  -5  -3   4  138.79    5.50
  -4  -3   4  602.94    9.90
  -3  -3   4  175.08    3.50
  -2  -3   4    3.60    0.30
  -1  -3   4  797.32   12.50
   0  -3   4   17.90    0.50
   1  -3   4  385.86   16.60
   2  -3   4  295.17    5.40
   3  -3   4   14.70    1.50
   4  -3   4  255.97    3.50
   5  -3   4   13.70    0.80
   6  -3   4    9.60    1.30
   7  -3   4  136.19    4.20
   8  -3   4   90.89    3.00
   9  -3   4   57.79    2.20
  10  -3   4   18.40    1.40
  11  -3   4   21.40    1.50
  12  -3   4   28.10    1.70
  13  -3   4    1.50    1.40
  14  -3   4   21.20    2.30
 -14  -2   4   18.90    2.30
 -13  -2   4   10.60    2.20
 -12  -2   4   15.10    1.50
 -11  -2   4   35.60    1.60
 -10  -2   4   62.49    1.90
  -9  -2   4   46.30    1.60
  -8  -2   4    7.50    0.60
  -7  -2   4   54.49    1.70
  -6  -2   4    0.00    1.30
  -5  -2   4   79.19    2.80
  -4  -2   4   28.00    1.00
  -3  -2   4    0.90    0.30
  -2  -2   4   15.20    0.70
  -1  -2   4    3.60    0.90
   0  -2   4  282.57   11.00
   1  -2   4   36.40    1.20
   2  -2   4  251.27   10.60
   3  -2   4    2.80    0.40
   4  -2   4   39.40    1.20
   5  -2   4    1.00    0.60
   6  -2   4  506.15   11.40
   7  -2   4    0.00    3.10
   8  -2   4   23.20    1.20
   9  -2   4   19.70    2.30
  10  -2   4   32.90    1.50
  11  -2   4    2.10    0.60
  12  -2   4   29.90    2.00
  13  -2   4   14.20    1.90
  14  -2   4    3.60    1.30
 -14  -1   4    2.30    2.50
 -13  -1   4   26.30    2.70
 -12  -1   4   49.99    2.50
 -11  -1   4   82.39    3.90
 -10  -1   4   54.99    1.90
  -9  -1   4  124.39    3.20
  -8  -1   4    1.00    0.80
  -7  -1   4  306.17    7.50
  -6  -1   4  249.48    6.50
  -5  -1   4  153.38    6.60
  -4  -1   4   56.49    1.60
  -3  -1   4  188.98    2.90
  -2  -1   4   47.20    1.00
  -1  -1   4    0.00   10.00
   0  -1   4   82.99    2.10
   1  -1   4  612.64   12.30
   2  -1   4   85.59    3.60
   3  -1   4   18.60    0.60
   4  -1   4   15.40    0.80
   5  -1   4   19.70    1.30
   6  -1   4    0.00    1.40
   7  -1   4   50.79    2.40
   8  -1   4   14.70    1.70
   9  -1   4    9.70    1.60
  10  -1   4    7.00    0.80
  11  -1   4    7.90    0.90
  12  -1   4   28.80    2.40
  13  -1   4   12.90    2.00
  14  -1   4    1.30    1.50
 -14   0   4   14.30    2.10
 -13   0   4    3.10    1.00
 -12   0   4   27.90    3.20
 -11   0   4   77.29    3.00
 -10   0   4   91.89    2.70
  -9   0   4   94.79    2.90
  -8   0   4   36.30    2.70
  -7   0   4    0.40    1.10
  -6   0   4   40.70    1.30
  -5   0   4    1.00    0.50
  -4   0   4    4.00    0.30
  -3   0   4   91.49    1.40
  -2   0   4  433.96    6.40
  -1   0   4 4164.68  103.19
   0   0   4 3437.76  147.19
   1   0   4 3064.29  108.29
   2   0   4    1.10    0.30
   3   0   4   87.49    1.70
   4   0   4   18.20    0.70
   5   0   4  104.09    2.80
   6   0   4    5.30    0.70
   7   0   4    0.00    1.00
   8   0   4   32.50    2.40
   9   0   4   30.00    1.30
  10   0   4   11.30    1.20
  11   0   4    4.90    1.40
  12   0   4   48.70    2.90
  13   0   4   10.30    1.50
  14   0   4   26.30    2.40
 -14   1   4   29.20    2.70
 -13   1   4    2.70    1.40
 -12   1   4   28.50    2.30
 -11   1   4    0.80    0.90
 -10   1   4  104.89    2.90
  -9   1   4   76.09    3.40
  -8   1   4   24.70    2.30
  -7   1   4  237.08    7.50
  -6   1   4  128.29    5.90
  -5   1   4  369.56    8.10
  -4   1   4  155.28    2.60
  -3   1   4  127.19    2.30
  -2   1   4   20.60    1.10
  -1   1   4  648.44   23.10
   0   1   4   52.59    1.80
   1   1   4  981.80   20.30
   2   1   4  429.66    6.70
   3   1   4   11.90    0.50
   4   1   4  140.39    2.40
   5   1   4    6.10    1.40
   6   1   4    7.20    1.40
   7   1   4   10.80    1.80
   8   1   4    2.80    1.20
   9   1   4    6.30    0.90
  10   1   4    4.40    0.90
  11   1   4   96.39    3.30
  12   1   4  131.99    4.40
  13   1   4    8.40    1.50
  14   1   4   16.80    2.00
 -14   2   4   31.90    2.10
 -13   2   4    3.90    1.80
 -12   2   4   13.20    1.10
 -11   2   4    2.10    0.80
 -10   2   4   45.60    1.80
  -9   2   4    1.30    1.00
  -8   2   4  190.78    5.00
  -7   2   4   28.90    2.00
  -6   2   4    1.40    1.30
  -5   2   4   78.39    1.90
  -4   2   4   14.30    0.80
  -3   2   4  778.92   11.00
  -2   2   4  931.81   16.60
  -1   2   4   11.20    1.20
   0   2   4 2784.92   50.79
   1   2   4   61.79    1.60
   2   2   4  456.25    7.50
   3   2   4   15.00    0.50
   4   2   4  159.88    6.00
   5   2   4   73.09    2.80
   6   2   4   33.40    3.40
   7   2   4  134.29    5.00
   8   2   4   11.10    1.00
   9   2   4   44.30    1.50
  10   2   4   56.39    2.20
  11   2   4   84.79    2.90
  12   2   4    6.60    1.30
  13   2   4   11.00    2.60
  14   2   4    9.00    1.70
 -14   3   4    8.80    2.00
 -13   3   4    1.40    1.10
 -12   3   4   22.10    1.40
 -11   3   4  120.29    3.00
 -10   3   4  158.78    4.10
  -9   3   4   59.89    2.80
  -8   3   4  155.58    3.90
  -7   3   4  398.86   16.80
  -6   3   4   19.90    2.00
  -5   3   4  579.04    8.30
  -4   3   4   79.89    1.50
  -3   3   4  479.55    7.00
  -2   3   4  109.99    2.80
  -1   3   4  381.86   16.20
   0   3   4    1.00    0.30
   1   3   4  362.96    6.50
   2   3   4    6.20    0.40
   3   3   4  353.36    6.60
   4   3   4   67.89    1.50
   5   3   4  192.88    4.20
   6   3   4  172.28    5.30
   7   3   4    5.70    1.00
   8   3   4   31.70    1.30
   9   3   4    8.10    1.10
  10   3   4   13.20    1.50
  11   3   4   66.09    2.20
  12   3   4    8.50    1.30
  13   3   4    6.90    1.70
  14   3   4    4.70    1.30
 -14   4   4   32.60    3.10
 -13   4   4   10.30    1.40
 -12   4   4  100.99    3.00
 -11   4   4    8.10    1.30
 -10   4   4    5.10    1.20
  -9   4   4   43.60    2.20
  -8   4   4    8.80    1.40
  -7   4   4    3.30    1.30
  -6   4   4   10.30    0.80
  -5   4   4  543.65    8.40
  -4   4   4  238.68    4.80
  -3   4   4  687.03   11.90
  -2   4   4  274.27    5.20
  -1   4   4  304.07    5.00
   0   4   4  110.49    2.10
   1   4   4   78.39    2.30
   2   4   4  741.43   10.90
   3   4   4  766.82   13.70
   4   4   4    2.90    0.40
   5   4   4   44.30    1.50
   6   4   4    3.10    0.70
   7   4   4  138.89    3.20
   8   4   4   32.80    1.40
   9   4   4    5.10    1.10
  10   4   4   98.49    2.90
  11   4   4   13.80    1.30
  12   4   4   43.90    2.30
  13   4   4    7.20    1.20
  14   4   4    0.90    1.30
 -14   5   4    4.30    1.40
 -13   5   4   40.30    2.20
 -12   5   4    4.50    1.30
 -11   5   4    1.50    1.00
 -10   5   4    3.70    0.90
  -9   5   4   56.89    1.80
  -8   5   4   13.10    1.30
  -7   5   4    0.30    0.70
  -6   5   4  101.59    2.20
  -5   5   4    9.40    1.30
  -4   5   4   25.20    0.90
  -3   5   4  157.88    3.00
  -2   5   4   74.79    1.70
  -1   5   4    2.50    0.60
   0   5   4    7.00    0.50
   1   5   4   31.10    0.80
   2   5   4  100.89    3.20
   3   5   4    5.70    0.60
   4   5   4  247.68    3.90
   5   5   4    1.70    0.80
   6   5   4  114.49    2.40
   7   5   4    3.60    0.70
   8   5   4    0.70    0.80
   9   5   4   13.80    1.30
  10   5   4    3.00    1.00
  11   5   4   12.10    1.50
  12   5   4    4.40    1.60
  13   5   4    1.90    1.20
 -14   6   4   54.79    3.10
 -13   6   4   11.00    1.70
 -12   6   4    1.80    1.70
 -11   6   4    9.80    1.10
 -10   6   4   66.99    1.90
  -9   6   4   25.00    1.20
  -8   6   4   84.69    1.90
  -7   6   4  110.69    3.20
  -6   6   4   79.89    2.20
  -5   6   4   19.10    1.30
  -4   6   4   76.09    2.40
  -3   6   4  219.78    3.80
  -2   6   4   34.90    1.10
  -1   6   4  120.59    3.10
   0   6   4  311.37    6.00
   1   6   4  213.28    4.60
   2   6   4   12.90    0.90
   3   6   4   90.89    2.20
   4   6   4   29.90    1.30
   5   6   4   23.70    0.90
   6   6   4   53.69    1.90
   7   6   4  151.18    4.00
   8   6   4   45.60    2.30
   9   6   4    2.20    0.20
  10   6   4   15.40    1.30
  11   6   4    2.90    1.30
  12   6   4    3.70    1.40
  13   6   4    8.30    1.50
 -13   7   4   11.50    2.70
 -12   7   4   25.10    2.00
 -11   7   4   21.80    1.60
 -10   7   4   26.60    1.70
  -9   7   4   72.29    2.40
  -8   7   4   25.80    0.90
  -7   7   4  222.28    5.10
  -6   7   4  281.67    8.80
  -5   7   4   29.50    1.60
  -4   7   4   79.29    2.50
  -3   7   4    7.10    1.40
  -2   7   4    3.60    0.50
  -1   7   4   30.50    1.10
   0   7   4    0.80    0.30
   1   7   4   18.00    1.70
   2   7   4    5.80    0.90
   3   7   4    3.00    0.50
   4   7   4   46.20    1.30
   5   7   4   73.39    2.00
   6   7   4   10.50    0.80
   7   7   4   39.40    2.80
   8   7   4   57.49    2.10
   9   7   4    6.80    0.90
  10   7   4    9.60    1.10
  11   7   4    3.90    1.30
  12   7   4    8.00    1.60
  13   7   4   32.90    2.70
 -13   8   4    5.20    2.00
 -12   8   4    1.10    1.60
 -11   8   4    7.40    1.70
 -10   8   4   22.00    1.70
  -9   8   4    8.70    1.00
  -8   8   4  177.68    4.20
  -7   8   4  158.18    4.70
  -6   8   4   49.99    2.40
  -5   8   4   46.70    4.60
  -4   8   4    6.20    4.10
  -3   8   4   54.69    2.00
  -2   8   4   29.70    1.60
  -1   8   4   54.49    2.80
   0   8   4   42.20    2.60
   1   8   4   63.39    2.30
   2   8   4   18.50    1.60
   3   8   4    4.20    1.40
   4   8   4   39.50    1.60
   5   8   4   21.40    1.60
   6   8   4    5.50    1.50
   7   8   4   49.30    2.80
   8   8   4   44.40    2.70
   9   8   4  124.79    3.50
  10   8   4   47.80    2.90
  11   8   4    3.00    1.40
  12   8   4   34.20    3.10
 -12   9   4   11.20    1.70
 -11   9   4   34.80    2.90
 -10   9   4    1.20    1.10
  -9   9   4    4.00    1.20
  -8   9   4   17.40    1.60
  -7   9   4  201.68    6.80
  -6   9   4  165.58    9.30
  -5   9   4   68.39    2.90
  -4   9   4  125.29    4.50
  -3   9   4   87.69    2.50
  -2   9   4  263.27    6.20
  -1   9   4   12.00    1.40
   0   9   4    7.10    0.90
   1   9   4   11.50    1.00
   2   9   4   87.19    6.20
   3   9   4    5.70    1.00
   4   9   4   14.80    1.10
   5   9   4    4.00    1.30
   6   9   4    0.00    1.90
   7   9   4   21.40    5.00
   8   9   4  126.19    6.90
   9   9   4   25.50    2.80
  10   9   4   52.39    2.90
  11   9   4    6.20    1.60
  12   9   4    4.80    2.10
 -12  10   4   11.60    2.10
 -11  10   4    3.40    2.10
 -10  10   4    4.40    1.40
  -9  10   4   58.09    3.70
  -8  10   4    2.00    2.70
  -7  10   4   25.80    1.70
  -6  10   4    0.00    1.40
  -5  10   4    6.60    1.70
  -4  10   4   81.49    2.70
  -3  10   4   91.59    2.40
  -2  10   4    2.80    1.00
  -1  10   4   21.20    1.20
   0  10   4  199.08    7.40
   1  10   4    0.00    1.00
   2  10   4   60.39    2.70
   3  10   4   94.09    2.40
   4  10   4   15.90    1.20
   5  10   4   22.00    2.30
   6  10   4   34.40    2.20
   7  10   4   20.90    1.80
   8  10   4    6.80    1.80
   9  10   4    3.00    1.70
  10  10   4   22.70    2.00
  11  10   4    2.60    1.50
 -11  11   4   33.80    2.90
 -10  11   4    2.50    1.40
  -9  11   4    3.40    3.90
  -8  11   4    7.80    2.40
  -7  11   4   22.20    2.30
  -6  11   4   13.40    1.50
  -5  11   4    3.80    1.50
  -4  11   4   48.70    2.00
  -3  11   4   30.60    1.60
  -2  11   4   23.90    1.90
  -1  11   4    4.80    1.10
   0  11   4   27.10    2.60
   1  11   4    7.60    1.00
   2  11   4   30.60    1.60
   3  11   4    0.60    0.60
   4  11   4   12.70    1.30
   5  11   4   34.90    1.80
   6  11   4    2.00    1.20
   7  11   4   19.00    2.20
   8  11   4    1.90    2.00
   9  11   4   41.40    2.60
  10  11   4   53.89    2.90
 -10  12   4    1.80    1.50
  -9  12   4    6.20    1.90
  -8  12   4   61.69    3.00
  -7  12   4   72.09    4.50
  -6  12   4   69.19    4.70
  -5  12   4    4.30    1.70
  -4  12   4   13.50    1.50
  -3  12   4   57.19    3.30
  -2  12   4   12.40    2.40
  -1  12   4   49.10    3.90
   0  12   4   81.29    3.70
   1  12   4   71.59    3.70
   2  12   4   24.10    1.80
   3  12   4   40.10    2.00
   4  12   4    8.60    2.80
   5  12   4    0.80    1.40
   6  12   4    7.20    2.40
   7  12   4   34.00    3.20
   8  12   4    5.80    1.30
   9  12   4   25.10    2.60
  10  12   4   16.90    2.50
  -9  13   4    3.90    1.20
  -8  13   4   11.60    1.80
  -7  13   4    1.10    2.30
  -6  13   4    5.40    2.30
  -5  13   4  137.79    5.90
  -4  13   4   32.00    2.40
  -3  13   4   13.00    2.60
  -2  13   4   14.40    1.70
  -1  13   4    4.90    1.40
   0  13   4    2.00    1.00
   1  13   4    0.00    1.50
   2  13   4   20.30    1.60
   3  13   4    1.40    1.50
   4  13   4   66.29    3.60
   5  13   4    9.50    1.60
   6  13   4   76.29   11.00
   7  13   4   21.10    3.40
   8  13   4   38.00    2.30
   9  13   4    2.70    1.30
  -8  14   4    0.20    2.10
  -7  14   4  123.89    9.50
  -6  14   4   57.29    3.60
  -5  14   4    2.10    1.50
  -4  14   4   22.20    2.70
  -3  14   4   30.60    2.10
  -2  14   4   30.70    2.90
  -1  14   4   28.90    2.90
   0  14   4    1.60    0.80
   1  14   4    9.50    2.20
   2  14   4   80.89    3.60
   3  14   4    2.00    1.50
   4  14   4    6.80    1.70
   5  14   4   44.30    3.70
   6  14   4   14.70    3.50
   7  14   4   41.20    3.70
  -7  15   4    4.50    1.30
  -6  15   4    4.80    1.90
  -5  15   4   38.10    4.50
  -4  15   4   38.10    2.50
  -3  15   4   20.20    1.90
  -2  15   4    9.00    3.30
  -1  15   4    4.40    2.10
   0  15   4    1.90    1.00
   1  15   4    3.80    1.80
   2  15   4   11.80    3.40
   3  15   4    6.30    1.60
   4  15   4   25.20    2.10
   5  15   4    9.70    3.70
   6  15   4    3.80    2.40
  -5  16   4    4.00    1.60
  -4  16   4    2.20    1.60
  -3  16   4   19.30    2.00
  -2  16   4   29.80    4.30
  -1  16   4    4.00    2.00
   0  16   4   26.40    2.50
   1  16   4   11.70    2.50
   2  16   4   20.40    3.40
   3  16   4   11.50    1.70
   4  16   4    5.00    1.90
   0 -17   5    7.80    3.10
  -5 -16   5  125.39    6.30
  -4 -16   5    3.80    1.50
  -3 -16   5    2.00    1.30
  -2 -16   5   51.49    6.20
  -1 -16   5    5.20    3.70
   0 -16   5   17.70    2.20
   1 -16   5   13.10    2.90
   2 -16   5   18.40    3.70
   3 -16   5   11.20    2.40
   4 -16   5    4.90    1.50
  -6 -15   5   19.00    2.50
  -5 -15   5   35.90    4.70
  -4 -15   5    6.60    1.50
  -3 -15   5   17.80    2.10
  -2 -15   5    4.90    3.80
  -1 -15   5    9.10    2.20
   0 -15   5   35.30    3.20
   1 -15   5    1.30    3.90
   2 -15   5   19.00    3.30
   3 -15   5    3.20    1.30
   4 -15   5    8.80    2.00
   5 -15   5   44.30   10.90
   6 -15   5   63.89    4.80
  -8 -14   5   17.50    2.70
  -7 -14   5   51.19    4.70
  -6 -14   5    6.00    2.20
  -5 -14   5   10.10    2.80
  -4 -14   5    7.00    1.30
  -3 -14   5    0.00    1.20
  -2 -14   5    2.70    1.80
  -1 -14   5    1.80    1.70
   0 -14   5    2.80    1.00
   1 -14   5    8.80    2.50
   2 -14   5    5.80    2.30
   3 -14   5   18.80    1.80
   4 -14   5   22.00    2.20
   5 -14   5    2.20    2.70
   6 -14   5    6.10    2.60
   7 -14   5   21.50    3.90
   8 -14   5   29.50    3.10
  -9 -13   5    3.00    1.30
  -8 -13   5   49.70    2.80
  -7 -13   5   18.90    2.20
  -6 -13   5   32.00    2.90
  -5 -13   5   25.10    3.10
  -4 -13   5    7.20    1.60
  -3 -13   5    2.10    1.80
  -2 -13   5   37.90    2.30
  -1 -13   5   11.10    2.20
   0 -13   5   10.90    1.50
   1 -13   5    8.10    1.70
   2 -13   5    6.10    1.90
   3 -13   5    3.10    2.30
   4 -13   5    4.30    1.80
   5 -13   5   55.19    3.10
   6 -13   5   63.39    4.30
   7 -13   5   21.00    3.50
   8 -13   5   14.40    3.30
   9 -13   5   16.70    2.10
 -10 -12   5   69.19    3.90
  -9 -12   5   13.30    2.20
  -8 -12   5   15.90    2.20
  -7 -12   5   18.90    3.30
  -6 -12   5   23.10    3.30
  -5 -12   5    0.00    1.40
  -4 -12   5  221.28    7.10
  -3 -12   5   31.80    2.20
  -2 -12   5    1.10    0.90
  -1 -12   5    2.20    3.30
   0 -12   5   25.80    2.50
   1 -12   5   84.19    3.90
   2 -12   5   79.39    3.80
   3 -12   5   11.00    2.50
   4 -12   5   90.69    3.30
   5 -12   5   26.30    1.90
   6 -12   5    0.00    2.50
   7 -12   5   15.60    3.80
   8 -12   5   11.40    3.40
   9 -12   5   13.70    3.50
  10 -12   5   23.20    3.60
 -11 -11   5    8.20    4.00
 -10 -11   5    4.80    1.80
  -9 -11   5   79.09    3.50
  -8 -11   5    0.90    1.50
  -7 -11   5   11.40    2.20
  -6 -11   5   33.70    1.80
  -5 -11   5    6.00    1.70
  -4 -11   5   20.30    1.80
  -3 -11   5   11.60    1.00
  -2 -11   5   12.50    1.80
  -1 -11   5   15.90    1.20
   0 -11   5  103.89    3.70
   1 -11   5    8.80    1.20
   2 -11   5   59.19    2.60
   3 -11   5    1.00    0.70
   4 -11   5   10.70    1.20
   5 -11   5   13.40    1.60
   6 -11   5    0.60    1.60
   7 -11   5   33.20    2.50
   8 -11   5    7.20    3.30
   9 -11   5   12.50    4.40
  10 -11   5    0.90    1.70
  11 -11   5    9.90    1.50
 -11 -10   5   46.70    4.20
 -10 -10   5    1.40    1.50
  -9 -10   5    6.60    1.30
  -8 -10   5    8.00    1.70
  -7 -10   5   11.50    1.30
  -6 -10   5    5.10    1.30
  -5 -10   5   34.60    1.80
  -4 -10   5  114.79    2.90
  -3 -10   5   20.10    1.40
  -2 -10   5   16.60    1.60
  -1 -10   5   12.20    1.00
   0 -10   5   67.29    4.80
   1 -10   5    0.00    1.00
   2 -10   5  128.99    3.60
   3 -10   5   23.00    1.50
   4 -10   5   48.30    1.70
   5 -10   5   83.49    4.10
   6 -10   5   79.19    3.30
   7 -10   5    0.70    2.00
   8 -10   5    8.10    2.70
   9 -10   5    7.30    2.80
  10 -10   5    2.10    1.40
  11 -10   5    2.70    2.40
 -12  -9   5   37.00    4.10
 -11  -9   5    7.80    1.80
 -10  -9   5   34.40    1.90
  -9  -9   5   50.29    5.10
  -8  -9   5    6.60    1.30
  -7  -9   5   20.70    3.50
  -6  -9   5   20.60    5.80
  -5  -9   5    4.80    1.10
  -4  -9   5   95.79    2.60
  -3  -9   5   75.29    2.20
  -2  -9   5   69.79    5.80
  -1  -9   5    5.50    1.10
   0  -9   5   16.50    1.20
   1  -9   5   26.40    1.40
   2  -9   5  284.17    8.10
   3  -9   5   65.19    1.80
   4  -9   5   42.20    3.00
   5  -9   5   26.00    2.10
   6  -9   5   17.50    2.40
   7  -9   5   47.50    4.90
   8  -9   5  311.37   11.60
   9  -9   5   21.40    2.20
  10  -9   5    2.20    1.90
  11  -9   5   52.99    3.50
  12  -9   5    7.40    2.40
 -13  -8   5    5.40    2.30
 -12  -8   5    2.50    1.50
 -11  -8   5    1.00    1.20
 -10  -8   5    0.50    1.20
  -9  -8   5    4.40    2.20
  -8  -8   5  140.89    4.20
  -7  -8   5   16.30    2.00
  -6  -8   5   27.60    1.60
  -5  -8   5   56.69    2.40
  -4  -8   5  120.79    2.80
  -3  -8   5   17.70    1.60
  -2  -8   5   12.10    1.20
  -1  -8   5   10.30    1.30
   0  -8   5  130.89    4.30
   1  -8   5   14.90    1.30
   2  -8   5    3.70    0.70
   3  -8   5    6.90    0.90
   4  -8   5  101.39    3.80
   5  -8   5   25.60    3.70
   6  -8   5   53.89    2.00
   7  -8   5    9.20    2.00
   8  -8   5   47.30    3.00
   9  -8   5    9.40    1.50
  10  -8   5   14.70    2.40
  11  -8   5   18.70    2.60
  12  -8   5    5.00    2.00
 -13  -7   5   21.30    3.00
 -12  -7   5   20.90    2.00
 -11  -7   5    3.10    1.00
 -10  -7   5    0.70    1.40
  -9  -7   5   28.60    1.70
  -8  -7   5   12.80    2.00
  -7  -7   5    9.20    2.60
  -6  -7   5    5.00    1.30
  -5  -7   5    5.20    0.50
  -4  -7   5   15.20    0.70
  -3  -7   5    6.50    0.50
  -2  -7   5   35.50    1.00
  -1  -7   5   50.89    2.90
   0  -7   5   18.30    0.90
   1  -7   5   64.19    1.90
   2  -7   5   60.19    1.20
   3  -7   5   83.59    1.60
   4  -7   5   15.10    1.00
   5  -7   5   17.20    1.60
   6  -7   5    9.60    1.90
   7  -7   5    5.50    0.70
   8  -7   5   94.89    3.40
   9  -7   5   51.19    2.30
  10  -7   5   21.40    1.70
  11  -7   5   36.90    2.50
  12  -7   5   12.90    2.40
  13  -7   5   42.40    3.20
 -13  -6   5   14.20    2.00
 -12  -6   5   52.79    2.80
 -11  -6   5    9.10    1.90
 -10  -6   5    9.80    1.30
  -9  -6   5   49.20    2.00
  -8  -6   5   82.89    3.00
  -7  -6   5  209.78    4.40
  -6  -6   5   84.99    2.90
  -5  -6   5    1.80    0.40
  -4  -6   5   41.30    1.10
  -3  -6   5   71.29    1.60
  -2  -6   5   39.80    0.90
  -1  -6   5  104.89    3.80
   0  -6   5   29.10    0.90
   1  -6   5  166.88    3.30
   2  -6   5    1.10    0.30
   3  -6   5   10.40    0.50
   4  -6   5   52.79    1.50
   5  -6   5    1.70    0.90
   6  -6   5   41.70    2.00
   7  -6   5    0.00    1.30
   8  -6   5   81.29    2.60
   9  -6   5   16.70    1.10
  10  -6   5    6.30    0.90
  11  -6   5    1.40    1.30
  12  -6   5   87.79    4.40
  13  -6   5   10.40    1.90
 -14  -5   5   12.90    2.10
 -13  -5   5   12.50    1.70
 -12  -5   5   11.00    1.60
 -11  -5   5   21.70    1.90
 -10  -5   5    6.70    1.20
  -9  -5   5   19.40    1.40
  -8  -5   5   10.30    1.20
  -7  -5   5    6.50    0.80
  -6  -5   5   34.50    1.20
  -5  -5   5    5.20    0.80
  -4  -5   5   30.80    2.20
  -3  -5   5   33.90    0.70
  -2  -5   5  306.67    4.90
  -1  -5   5    1.70    0.40
   0  -5   5    5.50    0.40
   1  -5   5    3.10    0.40
   2  -5   5  240.08    3.90
   3  -5   5   28.60    1.10
   4  -5   5  116.59    2.70
   5  -5   5    1.40    0.70
   6  -5   5   18.90    1.20
   7  -5   5   72.39    3.10
   8  -5   5   10.30    1.30
   9  -5   5    1.40    0.80
  10  -5   5   17.40    1.10
  11  -5   5   24.90    1.90
  12  -5   5   15.90    1.70
  13  -5   5    5.60    2.00
 -14  -4   5    4.10    1.50
 -13  -4   5    1.90    1.30
 -12  -4   5   27.00    2.10
 -11  -4   5   37.50    1.90
 -10  -4   5    4.80    0.80
  -9  -4   5  157.38    3.80
  -8  -4   5    9.10    0.90
  -7  -4   5   76.09    2.60
  -6  -4   5    6.00    1.20
  -5  -4   5    3.00    0.80
  -4  -4   5    1.10    0.30
  -3  -4   5  849.12   14.80
  -2  -4   5   25.50    0.80
  -1  -4   5    9.20    0.60
   0  -4   5  445.96    7.20
   1  -4   5   11.00    0.90
   2  -4   5   18.90    2.10
   3  -4   5   24.70    1.60
   4  -4   5  367.06    5.50
   5  -4   5    7.20    0.60
   6  -4   5   52.89    2.00
   7  -4   5   22.50    2.50
   8  -4   5   59.79    2.50
   9  -4   5   11.60    0.90
  10  -4   5   67.59    2.20
  11  -4   5    2.90    1.10
  12  -4   5    3.50    1.00
  13  -4   5   10.60    1.90
  14  -4   5   39.50    3.00
 -14  -3   5    2.70    1.30
 -13  -3   5   11.80    2.10
 -12  -3   5    1.30    1.30
 -11  -3   5    9.00    1.00
 -10  -3   5   40.60    2.10
  -9  -3   5    1.50    0.60
  -8  -3   5    6.60    0.70
  -7  -3   5   38.50    2.00
  -6  -3   5   19.30    1.90
  -5  -3   5  114.29    3.30
  -4  -3   5   17.70    1.00
  -3  -3   5   33.50    1.30
  -2  -3   5    1.30    0.30
  -1  -3   5 1607.64   27.40
   0  -3   5   14.70    0.60
   1  -3   5  961.20   40.30
   2  -3   5  358.16    6.80
   3  -3   5   91.59    3.90
   4  -3   5   13.10    0.60
   5  -3   5  141.29    2.50
   6  -3   5   51.89    2.30
   7  -3   5    0.00    1.40
   8  -3   5   20.20    1.70
   9  -3   5   12.30    1.40
  10  -3   5   78.99    2.80
  11  -3   5    4.40    1.10
  12  -3   5   11.10    1.20
  13  -3   5    2.50    1.50
  14  -3   5    7.60    2.40
 -14  -2   5   24.30    2.00
 -13  -2   5   19.80    3.40
 -12  -2   5    7.80    1.60
 -11  -2   5    3.30    1.00
 -10  -2   5   17.10    1.60
  -9  -2   5   24.60    1.00
  -8  -2   5  105.29    2.50
  -7  -2   5   81.19    3.00
  -6  -2   5  138.79    7.00
  -5  -2   5   89.39    2.50
  -4  -2   5    4.10    1.20
  -3  -2   5   83.69    2.00
  -2  -2   5    1.80    0.50
  -1  -2   5  231.18    3.90
   0  -2   5   45.00    3.30
   1  -2   5   17.60    2.30
   2  -2   5   42.10    3.80
   3  -2   5   37.50    1.30
   4  -2   5   56.89    1.30
   5  -2   5    3.30    0.50
   6  -2   5  443.26   11.90
   7  -2   5    2.80    1.40
   8  -2   5   32.40    1.80
   9  -2   5    9.50    1.50
  10  -2   5    2.20    0.80
  11  -2   5   35.60    1.80
  12  -2   5    5.00    1.20
  13  -2   5   12.10    2.00
  14  -2   5   19.30    2.40
 -14  -1   5    5.30    2.40
 -13  -1   5   15.90    2.80
 -12  -1   5   22.70    2.00
 -11  -1   5   56.19    3.00
 -10  -1   5   41.50    1.50
  -9  -1   5   14.50    1.00
  -8  -1   5   33.90    1.70
  -7  -1   5  118.49    3.10
  -6  -1   5   54.39    1.60
  -5  -1   5   66.19    2.00
  -4  -1   5  133.79    3.90
  -3  -1   5  218.18    2.50
  -2  -1   5  214.98    4.40
  -1  -1   5  688.33   18.90
   0  -1   5   85.69    2.20
   1  -1   5  408.86   18.00
   2  -1   5  185.18    5.20
   3  -1   5   96.39    1.70
   4  -1   5  101.89    2.20
   5  -1   5   12.50    1.80
   6  -1   5    0.00    1.40
   7  -1   5    0.00    1.90
   8  -1   5   15.90    1.70
   9  -1   5   32.50    1.50
  10  -1   5   77.89    2.00
  11  -1   5   24.30    1.40
  12  -1   5   10.80    2.00
  13  -1   5    9.20    2.00
  14  -1   5    4.60    1.60
 -14   0   5    9.90    2.30
 -13   0   5    4.60    1.30
 -12   0   5    4.70    2.10
 -11   0   5   14.20    1.80
 -10   0   5   26.30    1.50
  -9   0   5   26.10    1.40
  -8   0   5    5.50    2.40
  -7   0   5   24.90    1.20
  -6   0   5    0.00    0.70
  -5   0   5    6.60    0.90
  -4   0   5    1.30    0.30
  -3   0   5    2.90    0.30
  -2   0   5  242.98    4.70
  -1   0   5    0.00    9.60
   0   0   5  336.67   10.00
   1   0   5  603.04   10.00
   2   0   5   89.89    2.00
   3   0   5    8.50    0.50
   4   0   5    1.30    0.40
   5   0   5  125.79    4.50
   6   0   5    0.00    0.70
   7   0   5   10.20    1.40
   8   0   5    6.50    4.50
   9   0   5    2.80    0.90
  10   0   5    1.60    0.80
  11   0   5    3.70    1.50
  12   0   5    4.90    1.60
  13   0   5    9.20    1.50
  14   0   5   19.10    2.20
 -14   1   5   34.20    3.00
 -13   1   5    6.00    2.00
 -12   1   5   42.30    2.50
 -11   1   5  129.69    3.70
 -10   1   5   15.00    1.20
  -9   1   5   10.90    1.60
  -8   1   5   17.20    1.60
  -7   1   5   19.20    1.60
  -6   1   5   40.00    1.50
  -5   1   5    0.90    0.50
  -4   1   5  508.95    7.40
  -3   1   5    2.60    0.40
  -2   1   5  337.77    9.40
  -1   1   5  568.94   22.50
   0   1   5   26.50    1.40
   1   1   5  762.52   22.60
   2   1   5    4.20    1.60
   3   1   5   42.90    1.10
   4   1   5  134.29    2.90
   5   1   5   95.49    2.70
   6   1   5    5.30    1.10
   7   1   5    9.90    2.00
   8   1   5   34.60    2.10
   9   1   5   84.49    2.20
  10   1   5   36.60    1.90
  11   1   5   76.39    2.90
  12   1   5   26.00    1.80
  13   1   5    3.40    1.70
  14   1   5   15.70    2.10
 -14   2   5   13.20    1.70
 -13   2   5   16.00    2.50
 -12   2   5    3.40    0.90
 -11   2   5   39.00    1.70
 -10   2   5    1.90    0.90
  -9   2   5   81.79    3.00
  -8   2   5    2.70    1.20
  -7   2   5  131.09    5.80
  -6   2   5   52.99    4.10
  -5   2   5  119.49    3.00
  -4   2   5  104.39    2.40
  -3   2   5  311.17    6.40
  -2   2   5  110.29    2.90
  -1   2   5   17.30    1.20
   0   2   5  721.03   12.80
   1   2   5   10.70    1.20
   2   2   5  304.37    5.50
   3   2   5   47.80    1.30
   4   2   5    0.80    0.90
   5   2   5    9.20    1.20
   6   2   5  250.17    8.60
   7   2   5    0.00    1.50
   8   2   5    3.70    0.80
   9   2   5  101.79    2.30
  10   2   5   40.80    2.00
  11   2   5    1.80    1.00
  12   2   5   26.50    1.80
  13   2   5   64.49    3.70
  14   2   5   15.00    1.80
 -14   3   5    7.80    2.50
 -13   3   5    3.80    1.50
 -12   3   5    4.00    1.00
 -11   3   5  115.09    2.90
 -10   3   5   41.00    2.00
  -9   3   5   33.10    2.30
  -8   3   5  107.29    3.00
  -7   3   5   35.80    2.40
  -6   3   5  289.27    6.10
  -5   3   5   23.50    1.00
  -4   3   5   85.79    1.60
  -3   3   5  202.58    4.00
  -2   3   5  138.89    3.70
  -1   3   5  214.48    8.00
   0   3   5   16.60    0.60
   1   3   5    1.40    0.50
   2   3   5   17.50    0.70
   3   3   5   61.19    1.60
   4   3   5   10.30    0.80
   5   3   5   12.50    1.20
   6   3   5    0.00    2.40
   7   3   5    4.40    0.80
   8   3   5   15.10    1.10
   9   3   5   22.00    1.50
  10   3   5  120.49    3.40
  11   3   5  126.99    3.60
  12   3   5    4.40    1.20
  13   3   5    3.30    1.60
  14   3   5   41.00    2.60
 -14   4   5   21.90    3.30
 -13   4   5    3.50    1.20
 -12   4   5    8.70    1.10
 -11   4   5   39.70    1.80
 -10   4   5   52.09    1.90
  -9   4   5   68.09    3.70
  -8   4   5   32.70    2.30
  -7   4   5  121.59    4.20
  -6   4   5    2.20    0.80
  -5   4   5   91.59    1.90
  -4   4   5    8.90    1.10
  -3   4   5  138.69    2.70
  -2   4   5  252.37    4.20
  -1   4   5  491.45   15.50
   0   4   5    1.50    0.40
   1   4   5  855.61   13.20
   2   4   5  154.68    3.00
   3   4   5   15.70    3.60
   4   4   5    3.50    0.40
   5   4   5  218.38    4.70
   6   4   5    4.10    0.90
   7   4   5    8.60    0.90
   8   4   5    8.50    0.80
   9   4   5   25.60    1.60
  10   4   5    2.40    0.90
  11   4   5    5.10    1.10
  12   4   5   82.49    3.50
  13   4   5   52.09    2.50
 -14   5   5    5.30    1.50
 -13   5   5    6.50    1.20
 -12   5   5    7.40    1.30
 -11   5   5    1.80    1.20
 -10   5   5    7.20    0.90
  -9   5   5   58.59    2.00
  -8   5   5    4.00    0.90
  -7   5   5    3.70    1.00
  -6   5   5   32.60    2.20
  -5   5   5    8.60    1.00
  -4   5   5  230.08    4.30
  -3   5   5   77.49    1.60
  -2   5   5   62.09    2.40
  -1   5   5   20.40    0.80
   0   5   5   10.70    0.60
   1   5   5   24.80    0.90
   2   5   5  390.56    7.10
   3   5   5   26.40    1.40
   4   5   5   66.49    1.60
   5   5   5   26.60    1.50
   6   5   5   88.99    2.00
   7   5   5   40.60    1.50
   8   5   5    1.50    1.00
   9   5   5    3.40    0.90
  10   5   5   18.70    1.10
  11   5   5    2.00    1.20
  12   5   5    7.20    1.50
  13   5   5   40.80    2.40
 -13   6   5    7.50    1.50
 -12   6   5   39.10    3.10
 -11   6   5    2.90    1.10
 -10   6   5   25.60    1.30
  -9   6   5   29.20    1.40
  -8   6   5   44.70    1.60
  -7   6   5  111.39    3.80
  -6   6   5  102.89    3.20
  -5   6   5    0.20    0.80
  -4   6   5  123.89    2.80
  -3   6   5    8.50    0.60
  -2   6   5   36.30    1.20
  -1   6   5  289.17    4.20
   0   6   5  219.28    4.20
   1   6   5   71.19    4.20
   2   6   5    9.20    1.10
   3   6   5   72.39    1.70
   4   6   5  100.79    2.70
   5   6   5    7.80    0.80
   6   6   5   54.09    1.70
   7   6   5   27.50    1.60
   8   6   5   23.80    1.70
   9   6   5    6.00    1.00
  10   6   5    4.50    1.10
  11   6   5    1.50    1.40
  12   6   5    6.70    1.50
  13   6   5   11.60    1.80
 -13   7   5   21.20    3.00
 -12   7   5   30.40    2.50
 -11   7   5   18.30    1.70
 -10   7   5   75.09    2.20
  -9   7   5    2.70    0.70
  -8   7   5   58.19    1.80
  -7   7   5   18.40    2.10
  -6   7   5   20.50    1.90
  -5   7   5   56.39    3.00
  -4   7   5   44.50    1.40
  -3   7   5    2.70    0.80
  -2   7   5    3.40    0.50
  -1   7   5   44.00    1.50
   0   7   5    0.70    0.50
   1   7   5   56.19    2.50
   2   7   5   18.20    1.30
   3   7   5    5.60    1.30
   4   7   5  282.57    4.60
   5   7   5   46.90    1.40
   6   7   5   39.10    1.40
   7   7   5    0.00    2.40
   8   7   5    8.90    1.60
   9   7   5   17.40    1.40
  10   7   5   11.30    1.70
  11   7   5   45.00    2.70
  12   7   5   30.70    2.40
 -13   8   5    7.90    1.80
 -12   8   5   21.50    2.50
 -11   8   5    2.40    1.60
 -10   8   5    3.10    1.50
  -9   8   5   46.10    2.10
  -8   8   5   99.59    2.50
  -7   8   5   16.80    2.60
  -6   8   5    8.20    1.90
  -5   8   5  109.29    3.70
  -4   8   5   33.20    3.90
  -3   8   5   80.19    2.60
  -2   8   5    1.50    0.80
  -1   8   5   16.50    1.60
   0   8   5  206.88    6.50
   1   8   5   17.80    1.40
   2   8   5   10.60    1.30
   3   8   5   33.90    4.60
   4   8   5   59.89    1.90
   5   8   5    4.10    1.10
   6   8   5   44.90    2.30
   7   8   5   48.70    2.40
   8   8   5   90.29    2.70
   9   8   5  145.39    4.20
  10   8   5   54.79    3.20
  11   8   5    4.10    1.40
  12   8   5    2.90    1.50
 -12   9   5   50.09    2.80
 -11   9   5    9.10    1.60
 -10   9   5   30.40    2.30
  -9   9   5   21.80    1.90
  -8   9   5   75.49    3.40
  -7   9   5  289.77    6.30
  -6   9   5   23.80    1.80
  -5   9   5    5.40    1.70
  -4   9   5  174.28    6.10
  -3   9   5  233.88    4.60
  -2   9   5  143.69    4.50
  -1   9   5   62.79    3.30
   0   9   5    5.80    1.40
   1   9   5    0.00    2.80
   2   9   5  106.19    5.50
   3   9   5   40.80    1.70
   4   9   5  436.16    9.30
   5   9   5   11.90    1.50
   6   9   5   22.20    2.90
   7   9   5   17.80    3.00
   8   9   5    4.30    1.70
   9   9   5    5.00    2.00
  10   9   5    3.80    1.30
  11   9   5   24.00    2.50
 -11  10   5   10.90    2.10
 -10  10   5  125.59    4.50
  -9  10   5    1.20    1.50
  -8  10   5   11.60    2.10
  -7  10   5   34.20    1.90
  -6  10   5    9.20    2.20
  -5  10   5   40.70    2.90
  -4  10   5   39.90    1.60
  -3  10   5    3.60    0.80
  -2  10   5   49.50    2.40
  -1  10   5   60.39    2.80
   0  10   5  156.68    5.20
   1  10   5    0.00    2.60
   2  10   5   23.70    1.70
   3  10   5    2.00    0.60
   4  10   5   30.70    1.90
   5  10   5   76.59    2.90
   6  10   5   28.10    1.60
   7  10   5    0.00    1.60
   8  10   5    3.00    1.00
   9  10   5   48.20    2.70
  10  10   5    8.00    1.70
  11  10   5   13.00    2.10
 -11  11   5    3.10    1.50
 -10  11   5    9.20    1.50
  -9  11   5   33.70    3.30
  -8  11   5    3.20    1.90
  -7  11   5    9.70    2.50
  -6  11   5   19.60    1.50
  -5  11   5    4.60    1.70
  -4  11   5   41.20    2.00
  -3  11   5  111.29    3.10
  -2  11   5   60.09    2.90
  -1  11   5   24.60    3.90
   0  11   5    8.80    1.60
   1  11   5   54.79    3.90
   2  11   5   56.19    2.30
   3  11   5   50.69    1.60
   4  11   5    8.90    1.50
   5  11   5    8.60    1.30
   6  11   5    0.30    2.20
   7  11   5   25.10    2.80
   8  11   5    5.70    3.00
   9  11   5   14.50    2.10
  10  11   5   19.20    2.20
 -10  12   5    8.80    1.80
  -9  12   5   13.50    2.60
  -8  12   5   20.70    1.80
  -7  12   5    2.60    2.90
  -6  12   5    3.50    2.90
  -5  12   5    6.80    1.70
  -4  12   5    4.30    1.10
  -3  12   5   93.19    4.20
  -2  12   5    7.40    1.70
  -1  12   5   80.99    3.20
   0  12   5   39.10    3.20
   1  12   5   10.00    3.00
   2  12   5    1.70    0.90
   3  12   5  133.69    3.50
   4  12   5   33.60    2.40
   5  12   5   10.10    1.70
   6  12   5   10.60    3.20
   7  12   5    7.50    2.50
   8  12   5    6.40    1.40
   9  12   5   51.59    3.20
  -9  13   5    5.60    1.80
  -8  13   5   58.99    2.70
  -7  13   5   25.90    3.70
  -6  13   5  127.39    6.40
  -5  13   5   20.40    2.20
  -4  13   5    2.40    1.20
  -3  13   5   14.40    2.60
  -2  13   5   17.30    2.30
  -1  13   5    2.80    1.60
   0  13   5    2.70    1.10
   1  13   5    1.50    1.70
   2  13   5   72.59    3.80
   3  13   5    3.70    1.60
   4  13   5   14.60    2.20
   5  13   5    8.90    1.70
   6  13   5   33.40    2.90
   7  13   5    9.50    3.40
   8  13   5    5.50    1.40
  -8  14   5    1.10    1.60
  -7  14   5    0.00    3.90
  -6  14   5   36.50    3.30
  -5  14   5   21.40    2.50
  -4  14   5   17.60    2.60
  -3  14   5   34.80    2.30
  -2  14   5    0.90    1.70
  -1  14   5   59.99    5.90
   0  14   5   19.30    1.80
   1  14   5   55.49    4.90
   2  14   5   53.99    3.00
   3  14   5   10.80    1.50
   4  14   5   15.70    1.80
   5  14   5    0.00    2.40
   6  14   5   10.60    3.00
   7  14   5   79.09    5.70
  -6  15   5    2.60    2.60
  -5  15   5   14.70    2.90
  -4  15   5    5.40    1.90
  -3  15   5   32.10    2.10
  -2  15   5   32.70    3.80
  -1  15   5    3.20    2.20
   0  15   5    3.30    1.10
   1  15   5   14.70    1.90
   2  15   5   11.10    3.10
   3  15   5   12.60    1.40
   4  15   5   12.10    1.90
   5  15   5   94.99    6.70
  -4  16   5    3.10    1.50
  -3  16   5   22.30    2.00
  -2  16   5    4.20    3.20
  -1  16   5    2.80    1.90
   0  16   5   37.30    2.60
   1  16   5    5.80    2.20
   2  16   5   67.89    4.70
   3  16   5   24.80    1.90
  -4 -16   6    2.60    1.70
  -3 -16   6   15.20    2.00
  -2 -16   6    3.40    2.60
  -1 -16   6    2.10    2.40
   0 -16   6   50.99    3.60
   1 -16   6   10.90    2.20
   2 -16   6    1.60    2.70
   3 -16   6   21.10    2.60
   4 -16   6    8.10    1.70
  -6 -15   6   84.09    4.50
  -5 -15   6    8.30    9.40
  -4 -15   6    6.10    1.60
  -3 -15   6   11.10    1.40
  -2 -15   6   15.50    3.70
  -1 -15   6   23.90    2.90
   0 -15   6    9.60    1.50
   1 -15   6   21.10    4.40
   2 -15   6   47.40    4.30
   3 -15   6   12.40    2.00
   4 -15   6   27.50    2.80
   5 -15   6   21.50    7.70
   6 -15   6    8.10    2.30
  -8 -14   6   20.10    2.50
  -7 -14   6    3.40    2.60
  -6 -14   6   50.09    3.30
  -5 -14   6    0.00    4.20
  -4 -14   6    1.00    1.30
  -3 -14   6   11.20    1.40
  -2 -14   6    5.80    1.50
  -1 -14   6   10.70    2.30
   0 -14   6    4.40    1.90
   1 -14   6   39.50    3.00
   2 -14   6    2.20    1.60
   3 -14   6   43.20    2.30
   4 -14   6    6.50    2.00
   5 -14   6   16.10    3.20
   6 -14   6   10.40    2.20
   7 -14   6   13.00    3.80
  -9 -13   6    1.70    1.30
  -8 -13   6   14.60    2.10
  -7 -13   6    6.40    2.80
  -6 -13   6   19.70    6.20
  -5 -13   6    2.20    1.70
  -4 -13   6   26.60    3.80
  -3 -13   6    7.60    2.70
  -2 -13   6    2.30    1.00
  -1 -13   6    8.30    2.60
   0 -13   6    2.80    1.60
   1 -13   6   28.60    1.90
   2 -13   6    6.20    1.80
   3 -13   6    1.70    2.00
   4 -13   6   17.70    2.90
   5 -13   6   24.70    3.60
   6 -13   6    7.70    2.70
   7 -13   6    5.00    3.10
   8 -13   6   32.50    3.40
   9 -13   6    1.40    1.50
 -10 -12   6    5.20    1.90
  -9 -12   6    2.10    1.20
  -8 -12   6   10.50    2.60
  -7 -12   6    0.00    2.60
  -6 -12   6   17.40    1.90
  -5 -12   6    1.90    1.20
  -4 -12   6    0.00    3.20
  -3 -12   6   29.90    2.40
  -2 -12   6   21.40    2.10
  -1 -12   6   76.79    3.10
   0 -12   6   41.90    2.50
   1 -12   6   15.00    3.20
   2 -12   6    4.20    2.10
   3 -12   6    5.70    1.60
   4 -12   6    8.50    1.30
   5 -12   6   55.19    4.40
   6 -12   6   56.19    4.20
   7 -12   6   23.40    2.90
   8 -12   6    3.50    1.90
   9 -12   6   11.40    3.60
  10 -12   6    5.50    1.50
 -11 -11   6   23.30    6.70
 -10 -11   6   16.50    2.30
  -9 -11   6   10.60    1.90
  -8 -11   6   13.30    2.50
  -7 -11   6   30.20    2.50
  -6 -11   6    9.00    1.10
  -5 -11   6    4.80    1.10
  -4 -11   6   94.09    2.80
  -3 -11   6   58.59    2.10
  -2 -11   6   19.10    1.60
  -1 -11   6  222.08    6.70
   0 -11   6   49.00    2.20
   1 -11   6  194.08    6.80
   2 -11   6  133.89    5.00
   3 -11   6    6.00    1.40
   4 -11   6   62.99    2.10
   5 -11   6    7.50    1.60
   6 -11   6   42.80    3.30
   7 -11   6   11.20    2.80
   8 -11   6    5.10    2.30
   9 -11   6   32.90    4.00
  10 -11   6   12.80    2.30
 -11 -10   6    3.40    3.30
 -10 -10   6   33.90    3.30
  -9 -10   6    4.20    1.40
  -8 -10   6   18.60    2.60
  -7 -10   6   10.80    1.50
  -6 -10   6   62.89    3.20
  -5 -10   6  100.69    3.60
  -4 -10   6   14.00    0.90
  -3 -10   6   39.30    1.30
  -2 -10   6   24.70    3.10
  -1 -10   6  201.78    4.50
   0 -10   6   41.20    3.10
   1 -10   6   42.00    4.40
   2 -10   6  133.49    4.20
   3 -10   6    4.40    0.70
   4 -10   6  134.89    3.60
   5 -10   6   61.89    3.30
   6 -10   6   14.50    1.30
   7 -10   6   14.20    2.00
   8 -10   6   38.70    3.20
   9 -10   6    4.30    1.50
  10 -10   6   12.00    3.00
  11 -10   6    2.50    1.80
 -12  -9   6   13.30    2.40
 -11  -9   6   12.10    1.90
 -10  -9   6    1.70    1.10
  -9  -9   6   61.19    4.90
  -8  -9   6  281.57   11.90
  -7  -9   6   64.89    3.50
  -6  -9   6   99.19    2.80
  -5  -9   6   45.90    2.00
  -4  -9   6   71.89    1.90
  -3  -9   6   44.90    2.00
  -2  -9   6    2.80    3.00
  -1  -9   6  181.88    4.30
   0  -9   6   29.00    1.80
   1  -9   6   43.90    5.30
   2  -9   6  166.08    5.50
   3  -9   6    3.10    0.60
   4  -9   6  161.88    9.80
   5  -9   6   21.80    2.20
   6  -9   6  119.99    4.70
   7  -9   6   16.60    3.10
   8  -9   6    0.00    2.00
   9  -9   6    6.40    1.50
  10  -9   6   36.80    3.00
  11  -9   6   11.00    4.90
  12  -9   6    7.10    1.60
 -12  -8   6   24.20    2.50
 -11  -8   6   38.70    2.60
 -10  -8   6    4.80    2.60
  -9  -8   6   35.80    3.50
  -8  -8   6  113.69    4.30
  -7  -8   6    5.60    2.00
  -6  -8   6    5.90    1.10
  -5  -8   6  146.29    4.30
  -4  -8   6   75.49    1.70
  -3  -8   6  225.58    9.70
  -2  -8   6   49.40    1.80
  -1  -8   6   41.30    1.60
   0  -8   6   61.59    4.50
   1  -8   6   14.50    2.70
   2  -8   6   39.00    1.30
   3  -8   6   77.79    2.30
   4  -8   6   58.49    2.90
   5  -8   6  140.19    4.90
   6  -8   6   79.49    3.00
   7  -8   6    4.60    1.50
   8  -8   6    7.60    1.50
   9  -8   6   41.80    2.40
  10  -8   6    5.60    2.20
  11  -8   6   83.79    4.30
  12  -8   6    3.00    1.90
 -13  -7   6   22.90    2.70
 -12  -7   6   30.30    2.30
 -11  -7   6    3.40    1.00
 -10  -7   6   14.20    2.00
  -9  -7   6   23.80    1.70
  -8  -7   6   58.99    4.00
  -7  -7   6   16.90    2.20
  -6  -7   6   23.00    1.20
  -5  -7   6   30.00    1.10
  -4  -7   6   16.30    0.80
  -3  -7   6  124.09    2.40
  -2  -7   6   72.89    1.50
  -1  -7   6   64.79    2.00
   0  -7   6   32.60    1.20
   1  -7   6    7.10    1.20
   2  -7   6    3.00    0.40
   3  -7   6    5.00    0.60
   4  -7   6   55.99    2.40
   5  -7   6   71.69    2.60
   6  -7   6   16.00    1.70
   7  -7   6   37.20    2.90
   8  -7   6    2.70    0.90
   9  -7   6   27.30    1.50
  10  -7   6   45.50    2.40
  11  -7   6   18.30    2.00
  12  -7   6   63.89    3.80
 -13  -6   6    8.00    1.70
 -12  -6   6    4.10    1.50
 -11  -6   6   26.90    2.30
 -10  -6   6    3.10    1.10
  -9  -6   6    4.00    0.30
  -8  -6   6   37.00    2.30
  -7  -6   6   47.40    1.70
  -6  -6   6   54.09    1.70
  -5  -6   6   70.29    1.60
  -4  -6   6  216.18    3.90
  -3  -6   6   27.50    1.20
  -2  -6   6   57.19    1.40
  -1  -6   6    1.90    1.00
   0  -6   6    1.10    0.30
   1  -6   6    2.60    0.60
   2  -6   6    2.30    0.40
   3  -6   6    2.50    0.60
   4  -6   6  157.28    3.20
   5  -6   6   60.09    3.20
   6  -6   6   73.39    2.10
   7  -6   6   10.00    1.80
   8  -6   6   44.50    1.80
   9  -6   6  142.39    3.70
  10  -6   6   16.70    1.20
  11  -6   6    7.40    1.60
  12  -6   6    5.40    2.40
  13  -6   6    2.30    1.70
 -13  -5   6   49.60    2.70
 -12  -5   6    3.00    1.10
 -11  -5   6   25.40    2.20
 -10  -5   6    4.50    0.90
  -9  -5   6   24.20    1.30
  -8  -5   6   30.40    1.60
  -7  -5   6  100.49    2.70
  -6  -5   6   15.60    0.90
  -5  -5   6   17.10    1.20
  -4  -5   6   18.60    1.20
  -3  -5   6  110.89    2.20
  -2  -5   6    4.70    0.80
  -1  -5   6    1.70    0.50
   0  -5   6    1.60    0.30
   1  -5   6   20.10    0.70
   2  -5   6    7.70    1.20
   3  -5   6   11.90    0.70
   4  -5   6   85.19    2.00
   5  -5   6   16.20    1.40
   6  -5   6    7.60    1.00
   7  -5   6   15.50    2.10
   8  -5   6  172.78    4.50
   9  -5   6    2.90    0.80
  10  -5   6    5.60    1.10
  11  -5   6   31.80    2.20
  12  -5   6   20.20    2.10
  13  -5   6  154.08    5.40
 -14  -4   6   26.70    2.50
 -13  -4   6    7.00    1.60
 -12  -4   6    0.90    2.00
 -11  -4   6   15.40    1.50
 -10  -4   6   97.69    3.00
  -9  -4   6   18.00    1.20
  -8  -4   6  294.07    6.40
  -7  -4   6   66.59    2.50
  -6  -4   6   69.29    1.90
  -5  -4   6   14.60    1.90
  -4  -4   6    5.60    0.50
  -3  -4   6  566.14    9.00
  -2  -4   6   90.49    1.80
  -1  -4   6   45.90    1.10
   0  -4   6   25.70    0.80
   1  -4   6    3.30    1.20
   2  -4   6  179.98    3.90
   3  -4   6   33.60    1.90
   4  -4   6  179.28    3.50
   5  -4   6    1.70    0.40
   6  -4   6   94.99    3.10
   7  -4   6   25.70    1.90
   8  -4   6   50.59    3.00
   9  -4   6   67.69    2.00
  10  -4   6    9.20    1.30
  11  -4   6   39.90    2.10
  12  -4   6    7.50    1.20
  13  -4   6    1.70    1.40
 -14  -3   6   15.20    2.00
 -13  -3   6    5.50    2.20
 -12  -3   6    4.40    1.40
 -11  -3   6   11.50    1.60
 -10  -3   6   86.19    2.70
  -9  -3   6   95.29    2.40
  -8  -3   6   28.50    1.30
  -7  -3   6    4.10    0.70
  -6  -3   6  180.58    4.00
  -5  -3   6    4.30    0.90
  -4  -3   6   42.10    1.00
  -3  -3   6    4.80    1.00
  -2  -3   6    0.90    0.30
  -1  -3   6 1013.30   20.00
   0  -3   6  134.89    2.80
   1  -3   6  303.37   17.70
   2  -3   6   58.49    2.60
   3  -3   6    7.30    1.00
   4  -3   6   25.80    1.10
   5  -3   6    4.00    0.50
   6  -3   6   12.50    1.80
   7  -3   6  371.86   16.80
   8  -3   6   82.39    3.60
   9  -3   6   31.00    2.50
  10  -3   6    6.20    1.20
  11  -3   6   16.40    1.30
  12  -3   6    1.70    1.00
  13  -3   6   17.20    1.90
 -14  -2   6   22.00    2.20
 -13  -2   6   29.30    4.40
 -12  -2   6    5.50    1.20
 -11  -2   6   58.69    3.20
 -10  -2   6    3.70    1.10
  -9  -2   6   20.20    1.40
  -8  -2   6   21.00    1.30
  -7  -2   6   26.50    1.50
  -6  -2   6  310.37   12.00
  -5  -2   6    4.60    0.70
  -4  -2   6    7.70    0.80
  -3  -2   6  350.46    7.30
  -2  -2   6  122.49    2.60
  -1  -2   6  189.08    8.80
   0  -2   6   31.90    1.70
   1  -2   6  484.25   10.80
   2  -2   6  114.69    9.60
   3  -2   6  208.18    7.30
   4  -2   6   22.80    0.90
   5  -2   6   22.80    1.00
   6  -2   6  173.98    9.10
   7  -2   6   19.70    1.80
   8  -2   6   22.30    1.70
   9  -2   6   69.89    2.90
  10  -2   6    4.90    0.80
  11  -2   6   13.80    1.10
  12  -2   6   13.00    1.70
  13  -2   6   21.30    2.30
  14  -2   6   11.50    2.50
 -14  -1   6    9.20    2.60
 -13  -1   6   12.20    2.00
 -12  -1   6   56.19    3.60
 -11  -1   6   24.10    2.30
 -10  -1   6   35.20    1.40
  -9  -1   6    1.30    0.50
  -8  -1   6   13.50    0.90
  -7  -1   6   88.39    2.20
  -6  -1   6   44.80    1.50
  -5  -1   6   54.79    2.70
  -4  -1   6   23.60    1.00
  -3  -1   6  273.37    3.40
  -2  -1   6   34.00    2.20
  -1  -1   6 1235.58   36.30
   0  -1   6    2.90    0.30
   1  -1   6 1332.27   30.70
   2  -1   6   62.49    3.50
   3  -1   6  718.33    8.60
   4  -1   6  188.38    4.10
   5  -1   6   33.20    3.60
   6  -1   6   19.70    3.40
   7  -1   6   64.99    3.80
   8  -1   6   14.80    1.90
   9  -1   6   15.30    2.20
  10  -1   6   10.50    0.90
  11  -1   6   46.50    2.10
  12  -1   6    8.80    1.70
  13  -1   6    4.90    1.60
  14  -1   6    4.10    1.40
 -14   0   6    0.00    1.80
 -13   0   6    2.50    1.30
 -12   0   6   41.30    3.40
 -11   0   6    7.20    1.60
 -10   0   6   27.80    1.20
  -9   0   6  108.89    3.40
  -8   0   6   42.20    4.20
  -7   0   6   34.30    1.40
  -6   0   6    4.90    0.60
  -5   0   6   77.29    4.40
  -4   0   6    6.60    0.50
  -3   0   6  132.49    2.40
  -2   0   6  383.46    7.20
  -1   0   6    0.00    0.40
   0   0   6 5789.72  192.98
   1   0   6    9.00    0.40
   2   0   6  702.33   12.90
   3   0   6 1033.40   18.40
   4   0   6   10.10    0.60
   5   0   6    1.10    0.90
   6   0   6   12.80    1.20
   7   0   6    0.00    1.10
   8   0   6  228.28   10.10
   9   0   6    7.40    0.80
  10   0   6   16.00    1.10
  11   0   6   42.00    2.10
  12   0   6   21.30    1.90
  13   0   6    5.70    1.60
  14   0   6    0.80    1.70
 -14   1   6    6.70    1.80
 -13   1   6   30.50    2.30
 -12   1   6   17.00    1.90
 -11   1   6   61.49    2.10
 -10   1   6  112.89    2.80
  -9   1   6  177.28    4.40
  -8   1   6    8.40    1.80
  -7   1   6   38.90    1.80
  -6   1   6   14.60    1.20
  -5   1   6    1.10    0.60
  -4   1   6   66.49    1.40
  -3   1   6    3.30    0.80
  -2   1   6  497.65   10.00
  -1   1   6  277.87   19.50
   0   1   6    3.80    0.40
   1   1   6  575.34   19.90
   2   1   6   89.29    2.30
   3   1   6    4.10    1.40
   4   1   6  221.18    4.20
   5   1   6  256.87    7.30
   6   1   6  160.08    6.60
   7   1   6   92.19    5.50
   8   1   6    0.80    1.20
   9   1   6    2.90    0.80
  10   1   6    3.10    1.00
  11   1   6   16.40    1.90
  12   1   6    9.60    1.50
  13   1   6    4.20    1.60
  14   1   6   33.20    2.50
 -14   2   6    3.00    1.20
 -13   2   6    7.90    1.90
 -12   2   6   16.90    1.80
 -11   2   6   36.40    1.60
 -10   2   6  152.88    3.50
  -9   2   6   89.69    3.20
  -8   2   6   11.90    1.40
  -7   2   6   53.39    1.80
  -6   2   6  123.29    8.10
  -5   2   6  165.88    3.00
  -4   2   6   24.00    0.80
  -3   2   6  382.56   10.70
  -2   2   6   45.50    2.80
  -1   2   6    0.00    5.80
   0   2   6  107.59    3.30
   1   2   6  164.38    6.30
   2   2   6  647.14   11.10
   3   2   6  556.24   11.20
   4   2   6  141.59    3.40
   5   2   6   18.20    1.20
   6   2   6    0.00    4.90
   7   2   6  182.88    4.30
   8   2   6   30.30    1.40
   9   2   6    1.30    0.70
  10   2   6   35.00    1.70
  11   2   6   21.10    1.70
  12   2   6   18.20    1.90
  13   2   6    4.80    1.60
 -14   3   6    1.60    1.80
 -13   3   6   18.40    1.90
 -12   3   6    1.90    0.90
 -11   3   6   70.69    2.30
 -10   3   6  172.38    4.70
  -9   3   6   27.00    1.60
  -8   3   6   41.70    1.90
  -7   3   6    9.10    1.50
  -6   3   6   51.49    1.70
  -5   3   6   25.20    1.00
  -4   3   6   41.60    1.00
  -3   3   6    9.70    0.90
  -2   3   6  255.67    4.30
  -1   3   6  183.28    7.00
   0   3   6    3.30    0.50
   1   3   6   44.20    1.70
   2   3   6  287.07    4.90
   3   3   6    2.90    0.60
   4   3   6   18.60    1.10
   5   3   6    7.10    0.70
   6   3   6   12.80    1.80
   7   3   6  178.48    4.80
   8   3   6   19.90    1.00
   9   3   6   53.69    2.00
  10   3   6    5.20    1.20
  11   3   6   67.09    2.60
  12   3   6   43.70    2.60
  13   3   6    5.80    1.80
 -14   4   6    2.30    1.50
 -13   4   6    5.70    1.20
 -12   4   6    3.50    1.30
 -11   4   6   24.00    1.50
 -10   4   6   14.50    1.50
  -9   4   6   10.70    1.10
  -8   4   6    9.80    1.80
  -7   4   6    2.80    1.10
  -6   4   6   73.19    1.80
  -5   4   6  376.26    6.20
  -4   4   6   17.90    1.10
  -3   4   6  153.58    2.80
  -2   4   6   52.49    2.40
  -1   4   6   94.59    5.20
   0   4   6    9.60    0.60
   1   4   6  235.28    3.90
   2   4   6   45.80    1.60
   3   4   6   83.49    2.20
   4   4   6   19.40    1.00
   5   4   6   42.80    1.50
   6   4   6   58.19    2.20
   7   4   6   76.69    1.80
   8   4   6  177.98    3.40
   9   4   6   24.50    1.80
  10   4   6   60.99    2.30
  11   4   6    3.30    1.20
  12   4   6    3.70    1.70
  13   4   6   10.20    1.40
 -13   5   6   19.70    1.90
 -12   5   6    7.20    1.20
 -11   5   6    1.70    1.10
 -10   5   6    5.10    1.00
  -9   5   6    3.00    0.80
  -8   5   6   20.00    1.40
  -7   5   6   26.40    1.90
  -6   5   6   41.30    2.10
  -5   5   6   70.49    2.40
  -4   5   6   19.40    1.30
  -3   5   6   33.00    1.00
  -2   5   6   95.39    2.10
  -1   5   6   94.39    1.70
   0   5   6   34.70    1.00
   1   5   6   18.70    1.10
   2   5   6   18.70    1.10
   3   5   6    6.80    0.70
   4   5   6    1.90    0.60
   5   5   6    9.60    0.90
   6   5   6   10.90    1.00
   7   5   6    7.20    0.90
   8   5   6    3.20    1.00
   9   5   6   38.30    2.00
  10   5   6   16.00    1.10
  11   5   6   49.60    2.50
  12   5   6    3.20    1.80
  13   5   6    9.90    1.50
 -13   6   6    2.30    1.10
 -12   6   6   47.90    3.20
 -11   6   6    1.70    1.00
 -10   6   6    8.90    1.00
  -9   6   6   12.30    1.20
  -8   6   6    9.80    1.10
  -7   6   6   32.10    1.90
  -6   6   6   34.70    2.40
  -5   6   6    7.30    1.70
  -4   6   6   41.00    1.90
  -3   6   6   11.40    0.70
  -2   6   6   29.70    1.30
  -1   6   6   32.90    1.00
   0   6   6  238.48    4.60
   1   6   6    2.40    1.40
   2   6   6   72.19    2.50
   3   6   6   32.10    1.20
   4   6   6   43.00    1.40
   5   6   6    8.40    1.00
   6   6   6    5.00    0.90
   7   6   6    2.70    0.80
   8   6   6   12.60    1.60
   9   6   6    9.30    1.10
  10   6   6   20.20    1.40
  11   6   6    7.20    1.80
  12   6   6   26.30    2.20
  13   6   6    8.60    2.00
 -13   7   6   18.40    2.40
 -12   7   6   43.70    2.80
 -11   7   6   44.80    2.30
 -10   7   6   13.90    1.30
  -9   7   6    4.90    0.90
  -8   7   6   15.90    1.20
  -7   7   6   23.50    1.90
  -6   7   6    0.00    2.20
  -5   7   6   13.20    2.20
  -4   7   6  101.89    2.90
  -3   7   6    2.80    0.80
  -2   7   6    0.60    0.40
  -1   7   6    3.90    2.30
   0   7   6    2.00    0.50
   1   7   6  149.49    3.40
   2   7   6   33.80    1.80
   3   7   6    6.10    0.80
   4   7   6   48.20    1.40
   5   7   6   83.99    2.80
   6   7   6   59.99    2.70
   7   7   6   41.90    2.80
   8   7   6    2.20    1.30
   9   7   6   10.40    1.00
  10   7   6    6.10    1.70
  11   7   6   83.59    4.20
  12   7   6    8.20    1.60
 -12   8   6   22.30    2.10
 -11   8   6   22.00    2.20
 -10   8   6   89.49    4.20
  -9   8   6   99.19    2.90
  -8   8   6   99.99    2.60
  -7   8   6   15.90    2.10
  -6   8   6   14.90    2.40
  -5   8   6   44.70    2.90
  -4   8   6   13.40    3.40
  -3   8   6   14.30    1.40
  -2   8   6    1.00    0.60
  -1   8   6   30.40    3.20
   0   8   6  111.29    4.90
   1   8   6   14.40    1.80
   2   8   6   25.10    2.00
   3   8   6    3.20    1.90
   4   8   6   54.59    2.00
   5   8   6  114.59    4.30
   6   8   6    7.70    1.80
   7   8   6    7.50    1.70
   8   8   6   38.90    2.10
   9   8   6    6.20    1.90
  10   8   6   20.10    3.00
  11   8   6   25.10    2.20
  12   8   6    3.90    1.40
 -12   9   6    3.60    1.70
 -11   9   6    8.00    2.60
 -10   9   6    9.10    1.70
  -9   9   6   29.20    2.10
  -8   9   6    0.50    1.20
  -7   9   6   35.80    2.80
  -6   9   6   16.60    2.90
  -5   9   6   22.60    2.20
  -4   9   6   27.90    2.70
  -3   9   6  103.39    3.00
  -2   9   6   16.50    1.70
  -1   9   6   87.49    5.40
   0   9   6    2.20    0.80
   1   9   6   37.30    5.10
   2   9   6   66.29    3.30
   3   9   6   66.49    2.70
   4   9   6   73.09    2.30
   5   9   6    7.20    1.80
   6   9   6   92.99    3.50
   7   9   6    4.10    2.10
   8   9   6    3.30    1.80
   9   9   6    2.50    2.60
  10   9   6    6.70    1.70
  11   9   6    6.00    1.70
 -11  10   6   16.30    2.40
 -10  10   6    4.40    1.40
  -9  10   6    5.70    1.40
  -8  10   6    1.10    3.40
  -7  10   6   13.80    1.90
  -6  10   6    0.60    1.70
  -5  10   6   11.30    2.70
  -4  10   6   43.10    1.90
  -3  10   6    2.20    0.80
  -2  10   6   39.90    1.80
  -1  10   6   55.09    2.80
   0  10   6    3.80    0.70
   1  10   6    0.00    2.60
   2  10   6   31.70    1.80
   3  10   6    5.60    1.00
   4  10   6   18.60    1.20
   5  10   6  248.08    8.10
   6  10   6    2.00    1.50
   7  10   6    0.00    1.90
   8  10   6    7.40    2.40
   9  10   6    1.10    1.40
  10  10   6   21.10    2.20
 -10  11   6   37.90    2.60
  -9  11   6    5.30    2.50
  -8  11   6    7.10    2.60
  -7  11   6   59.39    3.50
  -6  11   6   27.20    2.40
  -5  11   6    3.60    1.20
  -4  11   6   13.40    1.30
  -3  11   6   81.99    2.30
  -2  11   6   46.80    2.30
  -1  11   6    0.10    6.40
   0  11   6    5.70    1.00
   1  11   6  149.79    6.50
   2  11   6   54.99    2.20
   3  11   6  108.29    2.80
   4  11   6    1.30    1.10
   5  11   6   24.80    1.90
   6  11   6   55.09    2.30
   7  11   6    0.10    2.20
   8  11   6   40.10    3.50
   9  11   6    6.80    1.70
  10  11   6    1.40    1.40
 -10  12   6    8.60    1.50
  -9  12   6   50.49    4.20
  -8  12   6    3.80    1.30
  -7  12   6   12.20    2.00
  -6  12   6   19.30    4.50
  -5  12   6    9.90    1.70
  -4  12   6    3.20    1.00
  -3  12   6   11.30    1.60
  -2  12   6   18.70    1.60
  -1  12   6   47.30    2.60
   0  12   6   19.90    2.50
   1  12   6   27.80    3.10
   2  12   6    1.40    1.00
   3  12   6   56.49    2.20
   4  12   6   13.00    2.30
   5  12   6   27.10    2.90
   6  12   6   41.00    2.10
   7  12   6    5.50    3.90
   8  12   6    0.80    1.60
   9  12   6   36.30    3.10
  -9  13   6    2.90    1.60
  -8  13   6    4.00    1.90
  -7  13   6   59.69    3.70
  -6  13   6    2.50    3.20
  -5  13   6    0.50    1.30
  -4  13   6    0.70    0.90
  -3  13   6   13.20    2.60
  -2  13   6   16.00    2.20
  -1  13   6    0.00    1.70
   0  13   6    5.60    1.40
   1  13   6    2.90    2.50
   2  13   6    7.20    1.20
   3  13   6    1.20    1.80
   4  13   6   20.50    2.30
   5  13   6    0.80    1.90
   6  13   6   16.40    3.10
   7  13   6    7.20    4.10
   8  13   6   46.00    2.90
  -7  14   6   51.29    6.70
  -6  14   6    1.40    1.80
  -5  14   6    8.80    2.10
  -4  14   6    2.60    1.60
  -3  14   6    2.10    2.10
  -2  14   6   32.40    2.40
  -1  14   6   74.59    4.70
   0  14   6    1.90    1.10
   1  14   6   63.79    3.90
   2  14   6    1.70    1.30
   3  14   6    3.70    2.00
   4  14   6   21.40    2.30
   5  14   6   25.00    2.90
   6  14   6   11.20    2.90
   7  14   6    7.50    7.40
  -6  15   6   12.00    1.70
  -5  15   6   30.30    4.00
  -4  15   6    8.60    1.90
  -3  15   6   28.20    1.90
  -2  15   6    7.90    2.20
  -1  15   6    0.00    2.40
   0  15   6    3.50    1.10
   1  15   6    5.30    1.80
   2  15   6    0.00    2.20
   3  15   6   18.60    1.60
   4  15   6   15.60    2.40
   5  15   6   10.70    3.70
  -3  16   6   10.70    1.60
  -2  16   6   43.90    4.20
  -1  16   6    2.90    1.80
   0  16   6    9.00    1.50
   1  16   6   20.30    2.40
   2  16   6    7.50    2.80
  -3 -16   7   14.00    1.90
  -2 -16   7    4.60    4.50
  -1 -16   7    7.00    3.90
   0 -16   7    1.30    1.40
   1 -16   7   20.50    3.20
   2 -16   7   22.60    5.20
   3 -16   7   25.10    2.10
  -6 -15   7    7.20    2.20
  -5 -15   7    4.70    6.60
  -4 -15   7   45.30    3.00
  -3 -15   7    1.90    1.60
  -2 -15   7    7.50    2.60
  -1 -15   7   46.80    3.00
   0 -15   7    1.80    1.20
   1 -15   7   24.60    4.20
   2 -15   7   31.30    3.10
   3 -15   7    7.50    1.60
   4 -15   7   12.50    2.30
   5 -15   7   14.70    8.50
  -7 -14   7    4.10    2.40
  -6 -14   7    2.60    3.90
  -5 -14   7   59.09    4.60
  -4 -14   7    5.60    1.50
  -3 -14   7   10.50    1.90
  -2 -14   7   45.70    2.90
  -1 -14   7    5.90    2.30
   0 -14   7    8.60    1.50
   1 -14   7   25.00    3.50
   2 -14   7    3.40    2.00
   3 -14   7   34.00    2.90
   4 -14   7   18.40    2.00
   5 -14   7   40.60    4.50
   6 -14   7    7.70    2.60
   7 -14   7    6.10    4.70
  -8 -13   7    1.70    1.50
  -7 -13   7   21.10    2.90
  -6 -13   7    6.50    2.30
  -5 -13   7    5.90    3.40
  -4 -13   7    1.50    2.30
  -3 -13   7    4.90    1.60
  -2 -13   7    3.00    1.10
  -1 -13   7    0.00    2.30
   0 -13   7   12.10    1.70
   1 -13   7   10.60    1.80
   2 -13   7   33.40    2.40
   3 -13   7   12.50    3.30
   4 -13   7    2.60    2.00
   5 -13   7    1.70    1.50
   6 -13   7   10.60    2.60
   7 -13   7   16.40    3.10
   8 -13   7   11.30    2.60
  -9 -12   7    2.00    1.20
  -8 -12   7    4.10    1.40
  -7 -12   7   14.10    2.90
  -6 -12   7   35.30    3.30
  -5 -12   7   15.80    2.90
  -4 -12   7   10.00    3.50
  -3 -12   7    1.60    0.90
  -2 -12   7   11.50    1.80
  -1 -12   7   45.20    2.90
   0 -12   7   77.39    4.40
   1 -12   7    0.00    2.30
   2 -12   7    4.80    2.40
   3 -12   7    7.40    1.50
   4 -12   7   19.00    1.80
   5 -12   7    8.30    2.50
   6 -12   7   41.60    2.90
   7 -12   7    8.50    2.70
   8 -12   7   13.50    2.40
   9 -12   7   13.70    5.00
 -10 -11   7    2.50    1.50
  -9 -11   7   10.90    1.90
  -8 -11   7    4.20    2.00
  -7 -11   7   33.50    2.50
  -6 -11   7   84.99    3.10
  -5 -11   7    0.30    1.40
  -4 -11   7    0.00    0.90
  -3 -11   7   16.90    1.30
  -2 -11   7    7.60    1.00
  -1 -11   7  332.07   11.60
   0 -11   7   10.70    1.30
   1 -11   7  451.25   12.40
   2 -11   7   37.50    2.40
   3 -11   7   31.00    1.90
   4 -11   7   14.10    1.10
   5 -11   7   12.60    2.40
   6 -11   7   20.60    2.00
   7 -11   7   11.00    2.20
   8 -11   7   17.50    3.70
   9 -11   7   22.10    3.80
  10 -11   7   21.00    2.60
 -11 -10   7    9.70    3.50
 -10 -10   7   12.40    2.20
  -9 -10   7    0.50    1.10
  -8 -10   7   17.80    2.80
  -7 -10   7   19.00    1.80
  -6 -10   7    0.00    0.90
  -5 -10   7   78.69    2.90
  -4 -10   7  123.09    2.80
  -3 -10   7   15.90    0.90
  -2 -10   7    6.80    1.10
  -1 -10   7  191.58    5.10
   0 -10   7    5.60    0.80
   1 -10   7   44.50    4.70
   2 -10   7   12.50    0.90
   3 -10   7   37.50    1.40
   4 -10   7   27.30    1.20
   5 -10   7   32.30    5.00
   6 -10   7   15.90    1.80
   7 -10   7   13.00    2.20
   8 -10   7    7.70    2.80
   9 -10   7   82.09    4.10
  10 -10   7    2.70    1.60
  11 -10   7    2.10    1.60
 -12  -9   7    1.50    2.60
 -11  -9   7    4.60    1.70
 -10  -9   7   48.00    2.60
  -9  -9   7    2.20    1.70
  -8  -9   7   18.80    1.70
  -7  -9   7   79.99    3.70
  -6  -9   7   92.59    3.70
  -5  -9   7   44.30    2.30
  -4  -9   7   60.29    1.60
  -3  -9   7   93.29    2.70
  -2  -9   7   69.09    2.50
  -1  -9   7  234.68   10.10
   0  -9   7    5.20    0.90
   1  -9   7  283.57   10.80
   2  -9   7    8.00    1.00
   3  -9   7   47.50    1.40
   4  -9   7   36.90    2.60
   5  -9   7   28.00    2.30
   6  -9   7   30.50    2.50
   7  -9   7   49.40    2.60
   8  -9   7   55.49    3.00
   9  -9   7   23.30    2.50
  10  -9   7   91.99    4.60
  11  -9   7   11.50    4.30
 -12  -8   7   19.80    2.00
 -11  -8   7   33.70    2.70
 -10  -8   7    2.00    1.40
  -9  -8   7   41.20    6.10
  -8  -8   7   14.40    2.40
  -7  -8   7    8.40    1.80
  -6  -8   7   24.00    1.90
  -5  -8   7   20.70    1.60
  -4  -8   7   56.49    1.70
  -3  -8   7   10.00    1.80
  -2  -8   7   16.60    1.60
  -1  -8   7   37.70    2.70
   0  -8   7   72.69    4.40
   1  -8   7   81.89    5.10
   2  -8   7   72.59    2.60
   3  -8   7   10.00    1.30
   4  -8   7   54.19    3.60
   5  -8   7  194.18    9.90
   6  -8   7   32.60    2.30
   7  -8   7   37.30    2.60
   8  -8   7   74.59    2.60
   9  -8   7   30.50    2.10
  10  -8   7   85.49    3.10
  11  -8   7    2.90    1.90
  12  -8   7   51.59    3.40
 -13  -7   7   19.00    2.80
 -12  -7   7   24.80    2.50
 -11  -7   7    3.70    1.50
 -10  -7   7   80.59    3.40
  -9  -7   7   16.10    1.40
  -8  -7   7   22.00    1.80
  -7  -7   7  108.29    4.90
  -6  -7   7    2.40    0.90
  -5  -7   7   35.80    1.60
  -4  -7   7    1.60    0.50
  -3  -7   7    8.80    1.20
  -2  -7   7  133.49    2.90
  -1  -7   7    0.00    2.40
   0  -7   7    0.60    0.40
   1  -7   7   70.39    2.00
   2  -7   7  113.99    2.20
   3  -7   7   59.09    2.70
   4  -7   7   86.49    3.50
   5  -7   7   52.29    3.20
   6  -7   7    0.00    3.40
   7  -7   7    7.50    1.60
   8  -7   7    7.70    1.30
   9  -7   7    0.50    0.80
  10  -7   7   13.40    1.30
  11  -7   7   22.20    2.10
  12  -7   7    4.00    1.90
 -13  -6   7    3.70    1.90
 -12  -6   7   50.99    3.00
 -11  -6   7   75.19    3.20
 -10  -6   7    7.40    1.20
  -9  -6   7   11.60    0.90
  -8  -6   7   44.40    2.10
  -7  -6   7   82.19    2.70
  -6  -6   7    5.50    1.00
  -5  -6   7   47.90    2.10
  -4  -6   7   27.90    1.20
  -3  -6   7   29.60    1.00
  -2  -6   7   68.99    2.20
  -1  -6   7   80.79    3.70
   0  -6   7   61.89    1.80
   1  -6   7   82.79    2.40
   2  -6   7  147.39    2.90
   3  -6   7   69.29    2.10
   4  -6   7  119.19    2.90
   5  -6   7   11.10    1.60
   6  -6   7   46.00    1.90
   7  -6   7    2.20    1.40
   8  -6   7   16.10    1.60
   9  -6   7    1.80    0.90
  10  -6   7   71.59    2.40
  11  -6   7    2.60    1.70
  12  -6   7    7.90    2.00
  13  -6   7   10.70    2.80
 -13  -5   7    8.30    1.80
 -12  -5   7    2.00    1.40
 -11  -5   7   28.10    2.30
 -10  -5   7    5.90    1.00
  -9  -5   7    4.50    1.00
  -8  -5   7  193.28    5.60
  -7  -5   7  129.99    2.90
  -6  -5   7   13.80    0.80
  -5  -5   7    4.20    1.00
  -4  -5   7    5.10    0.60
  -3  -5   7   44.70    1.10
  -2  -5   7    9.60    0.80
  -1  -5   7  125.29    2.70
   0  -5   7    8.20    0.50
   1  -5   7  111.99    3.50
   2  -5   7   30.00    2.00
   3  -5   7    9.60    0.80
   4  -5   7  224.68    4.00
   5  -5   7   10.90    1.60
   6  -5   7   62.69    2.10
   7  -5   7   23.60    1.80
   8  -5   7  134.69    4.00
   9  -5   7  112.29    3.20
  10  -5   7    9.50    1.30
  11  -5   7   53.39    2.40
  12  -5   7   12.30    1.90
  13  -5   7    1.40    1.20
 -14  -4   7    4.70    3.20
 -13  -4   7    2.10    1.60
 -12  -4   7    5.40    1.50
 -11  -4   7    1.90    1.00
 -10  -4   7    0.60    0.80
  -9  -4   7   40.50    1.80
  -8  -4   7   75.99    2.20
  -7  -4   7    9.00    1.10
  -6  -4   7  213.18    6.10
  -5  -4   7    3.70    0.80
  -4  -4   7   67.69    1.60
  -3  -4   7  133.79    3.10
  -2  -4   7   37.50    1.20
  -1  -4   7   87.19    1.70
   0  -4   7   16.00    0.60
   1  -4   7   16.20    2.40
   2  -4   7   83.49    3.10
   3  -4   7   49.60    1.50
   4  -4   7   31.10    1.20
   5  -4   7    4.50    0.90
   6  -4   7   73.99    2.60
   7  -4   7  215.08    6.40
   8  -4   7  190.38    5.70
   9  -4   7   28.20    1.50
  10  -4   7   29.40    1.60
  11  -4   7   39.30    2.00
  12  -4   7    4.00    1.00
  13  -4   7    3.20    1.60
 -14  -3   7    4.20    1.70
 -13  -3   7   12.00    2.80
 -12  -3   7   12.10    1.30
 -11  -3   7   41.00    3.10
 -10  -3   7   19.70    2.10
  -9  -3   7    8.10    1.10
  -8  -3   7  216.68    4.70
  -7  -3   7  309.47    9.10
  -6  -3   7  180.48    4.50
  -5  -3   7    1.60    0.50
  -4  -3   7   35.10    1.50
  -3  -3   7   17.80    0.90
  -2  -3   7   38.70    1.00
  -1  -3   7   35.40    1.10
   0  -3   7   78.49    1.70
   1  -3   7    0.90    1.10
   2  -3   7  125.29    3.00
   3  -3   7    2.40    0.70
   4  -3   7   11.10    0.70
   5  -3   7   29.40    1.20
   6  -3   7   44.20    2.80
   7  -3   7   64.59    4.10
   8  -3   7   95.39    3.40
   9  -3   7  223.98    5.40
  10  -3   7   19.70    1.30
  11  -3   7    5.50    1.00
  12  -3   7   49.90    2.20
  13  -3   7   17.60    2.20
 -14  -2   7    3.50    1.70
 -13  -2   7   10.90    2.40
 -12  -2   7    9.70    1.40
 -11  -2   7    1.30    1.00
 -10  -2   7    2.90    1.20
  -9  -2   7   14.30    1.10
  -8  -2   7    7.40    1.00
  -7  -2   7    0.30    2.70
  -6  -2   7  442.36    9.20
  -5  -2   7   16.20    1.30
  -4  -2   7   52.89    2.10
  -3  -2   7  252.77    4.50
  -2  -2   7    2.50    0.60
  -1  -2   7  268.47   12.90
   0  -2   7  266.27    6.30
   1  -2   7  170.98   10.40
   2  -2   7   86.19    4.10
   3  -2   7  162.28    4.90
   4  -2   7   12.00    0.60
   5  -2   7    5.00    0.70
   6  -2   7    0.00    6.00
   7  -2   7  190.48    6.60
   8  -2   7    5.50    1.10
   9  -2   7   12.10    1.60
  10  -2   7    9.90    0.90
  11  -2   7   11.50    1.30
  12  -2   7    1.20    1.20
  13  -2   7   26.80    2.30
 -14  -1   7    4.20    2.20
 -13  -1   7   23.80    1.90
 -12  -1   7    6.30    1.70
 -11  -1   7   16.30    2.20
 -10  -1   7    2.80    0.90
  -9  -1   7   29.00    1.60
  -8  -1   7    2.60    1.00
  -7  -1   7   56.09    4.10
  -6  -1   7   73.49    3.20
  -5  -1   7   48.50    5.20
  -4  -1   7   60.89    1.60
  -3  -1   7   67.69    3.90
  -2  -1   7  773.02   14.70
  -1  -1   7    8.00    1.30
   0  -1   7  131.89    3.20
   1  -1   7   26.60    1.30
   2  -1   7  156.08    9.20
   3  -1   7  304.27    6.40
   4  -1   7   55.19    1.40
   5  -1   7   28.20    4.20
   6  -1   7    0.00    2.40
   7  -1   7   88.99    4.80
   8  -1   7    5.50    1.80
   9  -1   7   12.10    1.30
  10  -1   7   34.50    1.30
  11  -1   7    6.30    1.20
  12  -1   7   29.70    2.90
  13  -1   7   14.00    2.00
 -14   0   7   10.50    2.20
 -13   0   7   17.50    1.60
 -12   0   7    1.90    1.40
 -11   0   7   52.09    2.30
 -10   0   7    1.60    0.60
  -9   0   7    1.30    0.50
  -8   0   7  232.58   11.70
  -7   0   7   15.10    1.20
  -6   0   7   31.30    1.50
  -5   0   7    1.20    0.90
  -4   0   7   40.10    1.00
  -3   0   7  645.24   10.40
  -2   0   7 1295.57   26.40
  -1   0   7    0.50    4.90
   0   0   7  193.98    6.20
   1   0   7  303.77    5.20
   2   0   7  468.05   10.00
   3   0   7   15.60    0.70
   4   0   7  178.48    3.50
   5   0   7   19.50    2.10
   6   0   7    0.00    1.70
   7   0   7   91.39    6.50
   8   0   7   13.80    3.40
   9   0   7    2.40    0.80
  10   0   7   34.70    1.80
  11   0   7   12.10    1.60
  12   0   7    2.20    1.60
  13   0   7   21.30    2.10
 -14   1   7    6.70    1.50
 -13   1   7    2.50    1.90
 -12   1   7   21.40    1.60
 -11   1   7    1.90    0.80
 -10   1   7   12.90    1.00
  -9   1   7   54.19    2.70
  -8   1   7    6.70    2.50
  -7   1   7  164.28    5.30
  -6   1   7  285.77    6.70
  -5   1   7  271.57    6.10
  -4   1   7    2.50    0.40
  -3   1   7  495.35    7.10
  -2   1   7  253.87   10.40
  -1   1   7   84.69    2.30
   0   1   7   26.20    1.80
   1   1   7   53.09    2.30
   2   1   7  218.98    4.60
   3   1   7  791.92   11.60
   4   1   7   60.59    1.80
   5   1   7   95.89    3.20
   6   1   7    0.00    2.80
   7   1   7  234.18    6.70
   8   1   7   64.09    2.20
   9   1   7    4.10    0.80
  10   1   7    2.10    0.90
  11   1   7    4.70    1.60
  12   1   7    5.50    1.80
  13   1   7    2.40    1.50
 -14   2   7   30.40    2.30
 -13   2   7   36.30    3.40
 -12   2   7    3.40    1.30
 -11   2   7   46.00    1.80
 -10   2   7  180.78    4.00
  -9   2   7   47.10    2.70
  -8   2   7   58.69    2.10
  -7   2   7    3.40    3.20
  -6   2   7  111.09    5.20
  -5   2   7   11.60    0.80
  -4   2   7  176.38    3.30
  -3   2   7    1.00    0.30
  -2   2   7  359.06    8.60
  -1   2   7  638.34   23.90
   0   2   7   50.89    3.50
   1   2   7  843.12   31.70
   2   2   7    5.30    0.80
   3   2   7  437.16    8.10
   4   2   7   70.49    2.90
   5   2   7   25.00    1.30
   6   2   7   76.29    6.60
   7   2   7   80.99    3.70
   8   2   7    2.70    0.70
   9   2   7  202.48    3.70
  10   2   7   11.00    1.20
  11   2   7   46.60    2.40
  12   2   7   13.10    1.70
  13   2   7    8.10    2.00
 -14   3   7   24.30    2.50
 -13   3   7   10.30    2.50
 -12   3   7    8.40    1.20
 -11   3   7    9.50    1.00
 -10   3   7   10.50    1.30
  -9   3   7  118.49    3.30
  -8   3   7   31.40    2.30
  -7   3   7  150.58   11.00
  -6   3   7    3.80    1.10
  -5   3   7    1.50    0.50
  -4   3   7    2.60    0.50
  -3   3   7    1.90    0.60
  -2   3   7   38.00    1.80
  -1   3   7    4.50    1.20
   0   3   7    1.50    0.40
   1   3   7   15.00    1.00
   2   3   7    3.60    0.60
   3   3   7    1.80    0.70
   4   3   7   41.50    1.60
   5   3   7  114.89    3.30
   6   3   7  266.57   11.20
   7   3   7  151.58    3.50
   8   3   7   26.10    1.20
   9   3   7   25.90    1.40
  10   3   7    5.60    1.10
  11   3   7   78.89    2.80
  12   3   7   46.00    2.90
  13   3   7    5.50    1.90
 -13   4   7   19.60    1.80
 -12   4   7   72.49    2.70
 -11   4   7   28.10    2.10
 -10   4   7   71.29    2.40
  -9   4   7   25.10    1.90
  -8   4   7  103.39    3.30
  -7   4   7    6.80    2.30
  -6   4   7   20.90    1.50
  -5   4   7   40.10    1.30
  -4   4   7    0.80    0.50
  -3   4   7   21.30    1.00
  -2   4   7  140.29    4.40
  -1   4   7    0.00    1.50
   0   4   7  369.06    7.70
   1   4   7   37.30    1.00
   2   4   7  140.89    4.00
   3   4   7    6.80    0.80
   4   4   7    4.50    0.60
   5   4   7   34.20    1.60
   6   4   7   45.80    2.40
   7   4   7  185.48    4.50
   8   4   7   11.90    1.00
   9   4   7    1.20    1.00
  10   4   7    6.20    1.00
  11   4   7   31.70    2.00
  12   4   7   11.50    1.70
  13   4   7    4.30    1.30
 -13   5   7   56.99    2.80
 -12   5   7    1.20    1.10
 -11   5   7   31.60    1.90
 -10   5   7   12.00    1.10
  -9   5   7    2.50    0.90
  -8   5   7    7.60    1.20
  -7   5   7    2.50    1.00
  -6   5   7    2.90    0.90
  -5   5   7   25.40    1.40
  -4   5   7    5.60    2.70
  -3   5   7   36.90    1.00
  -2   5   7  172.18    3.50
  -1   5   7   69.09    1.90
   0   5   7   19.40    0.80
   1   5   7   55.79    1.50
   2   5   7   30.80    1.80
   3   5   7   32.80    1.50
   4   5   7   31.80    1.30
   5   5   7   47.50    2.40
   6   5   7   31.90    1.20
   7   5   7    0.90    0.90
   8   5   7   12.40    1.50
   9   5   7    1.40    0.70
  10   5   7   45.80    1.70
  11   5   7   54.29    2.30
  12   5   7   14.40    2.10
  13   5   7   29.60    2.00
 -13   6   7   22.60    2.00
 -12   6   7   16.00    1.90
 -11   6   7    2.50    1.30
 -10   6   7    7.10    1.10
  -9   6   7   13.70    1.90
  -8   6   7    1.70    0.80
  -7   6   7    7.20    1.20
  -6   6   7   23.60    1.50
  -5   6   7    9.30    1.40
  -4   6   7   67.09    2.00
  -3   6   7   68.19    1.80
  -2   6   7    2.30    0.70
  -1   6   7    8.50    0.70
   0   6   7  108.89    2.50
   1   6   7    5.00    1.30
   2   6   7  172.68    4.30
   3   6   7    2.40    0.60
   4   6   7   17.00    1.20
   5   6   7   92.49    2.50
   6   6   7   26.50    1.90
   7   6   7    3.80    1.20
   8   6   7   17.40    2.00
   9   6   7   20.80    1.20
  10   6   7   20.70    1.40
  11   6   7    9.00    2.10
  12   6   7    3.00    1.30
 -13   7   7    6.90    1.30
 -12   7   7   11.70    2.70
 -11   7   7   12.00    1.50
 -10   7   7   15.90    1.60
  -9   7   7    1.10    0.90
  -8   7   7    6.00    1.20
  -7   7   7   49.90    2.50
  -6   7   7   66.29    3.10
  -5   7   7  103.49    4.30
  -4   7   7  207.58    5.00
  -3   7   7   23.30    1.60
  -2   7   7   81.49    2.30
  -1   7   7   18.30    1.30
   0   7   7   31.50    1.20
   1   7   7    6.80    2.10
   2   7   7   68.39    3.50
   3   7   7   19.00    1.60
   4   7   7    1.20    0.60
   5   7   7    8.10    1.20
   6   7   7   36.70    1.90
   7   7   7   33.20    2.50
   8   7   7   17.20    2.30
   9   7   7    9.60    1.10
  10   7   7    7.40    1.30
  11   7   7    7.60    1.40
  12   7   7   51.99    2.90
 -12   8   7   11.10    1.70
 -11   8   7   45.70    3.20
 -10   8   7   24.20    3.20
  -9   8   7    5.80    1.00
  -8   8   7   23.60    1.50
  -7   8   7    2.60    2.00
  -6   8   7   40.50    2.40
  -5   8   7   57.79    4.60
  -4   8   7   83.79    3.60
  -3   8   7   65.79    3.10
  -2   8   7   34.30    1.80
  -1   8   7    6.10    2.50
   0   8   7   47.00    2.90
   1   8   7   14.90    1.70
   2   8   7    9.50    2.40
   3   8   7   43.90    2.90
   4   8   7    1.40    0.70
   5   8   7   25.70    2.60
   6   8   7    4.90    2.90
   7   8   7    0.00    2.00
   8   8   7    2.00    1.10
   9   8   7   23.10    2.40
  10   8   7   15.60    3.10
  11   8   7    9.30    1.50
 -12   9   7    2.10    1.30
 -11   9   7    6.80    2.40
 -10   9   7    8.30    1.60
  -9   9   7    1.90    1.00
  -8   9   7    0.60    1.00
  -7   9   7   41.40    2.40
  -6   9   7   45.20    3.60
  -5   9   7    9.90    2.30
  -4   9   7   42.90    2.60
  -3   9   7   20.00    1.60
  -2   9   7   57.29    2.50
  -1   9   7    0.00    1.70
   0   9   7    9.50    1.10
   1   9   7   26.40    1.50
   2   9   7   21.40    2.50
   3   9   7   42.20    2.00
   4   9   7   20.20    1.40
   5   9   7   80.29    3.60
   6   9   7   62.79    3.10
   7   9   7    0.00    1.70
   8   9   7    5.00    3.10
   9   9   7    9.80    4.30
  10   9   7    2.90    1.50
  11   9   7    4.80    1.70
 -11  10   7   51.09    3.30
 -10  10   7    2.00    1.30
  -9  10   7    0.20    1.20
  -8  10   7   22.40    3.20
  -7  10   7   27.10    1.90
  -6  10   7   12.50    1.70
  -5  10   7  219.98    8.00
  -4  10   7    6.40    1.00
  -3  10   7   97.09    3.00
  -2  10   7   75.59    2.50
  -1  10   7    0.00    1.60
   0  10   7  508.75   15.00
   1  10   7   48.90    1.80
   2  10   7    0.70    1.10
   3  10   7   35.80    1.70
   4  10   7   27.60    1.60
   5  10   7   35.60    6.40
   6  10   7   50.09    2.30
   7  10   7    2.20    1.30
   8  10   7   21.20    3.30
   9  10   7    2.90    1.60
  10  10   7   20.10    2.10
 -10  11   7    5.60    1.50
  -9  11   7   10.50    4.50
  -8  11   7   38.40    2.80
  -7  11   7    7.30    2.00
  -6  11   7    0.00    2.50
  -5  11   7   24.20    2.10
  -4  11   7   13.50    1.30
  -3  11   7    6.40    1.00
  -2  11   7    7.10    1.90
  -1  11   7    0.00    2.10
   0  11   7   31.00    2.40
   1  11   7   63.79    2.30
   2  11   7    9.50    1.40
   3  11   7   14.90    1.30
   4  11   7   12.00    1.40
   5  11   7  100.19    3.90
   6  11   7    6.00    1.60
   7  11   7    2.00    2.80
   8  11   7    2.20    2.80
   9  11   7    4.00    1.50
  -9  12   7   17.10    2.60
  -8  12   7    7.00    2.20
  -7  12   7   20.60    2.80
  -6  12   7    4.30    2.40
  -5  12   7    1.30    1.30
  -4  12   7   14.20    1.40
  -3  12   7   63.99    2.80
  -2  12   7    8.50    2.20
  -1  12   7   20.10    3.80
   0  12   7  151.68    7.20
   1  12   7  145.69    4.50
   2  12   7    6.10    1.30
   3  12   7    7.50    1.20
   4  12   7   28.20    2.80
   5  12   7    0.80    2.30
   6  12   7   18.90    2.30
   7  12   7   26.90    2.90
   8  12   7    3.20    1.80
  -8  13   7   22.20    2.40
  -7  13   7    0.00    3.10
  -6  13   7    4.70    3.60
  -5  13   7    7.00    1.70
  -4  13   7    3.70    1.20
  -3  13   7    4.40    2.40
  -2  13   7   33.10    2.50
  -1  13   7   11.60    2.60
   0  13   7    1.20    1.80
   1  13   7   10.50    2.80
   2  13   7    9.50    1.30
   3  13   7    6.50    2.30
   4  13   7   19.70    3.50
   5  13   7   40.40    2.70
   6  13   7    5.40    3.00
   7  13   7   49.30    4.90
  -7  14   7   93.29    6.10
  -6  14   7    3.50    2.00
  -5  14   7   30.70    2.90
  -4  14   7    6.60    1.80
  -3  14   7    4.20    1.80
  -2  14   7   28.30    2.90
  -1  14   7   28.20    3.30
   0  14   7    1.80    1.10
   1  14   7   38.90    3.00
   2  14   7   11.00    2.00
   3  14   7    6.00    1.80
   4  14   7   13.60    2.20
   5  14   7    0.90    2.10
   6  14   7    2.40    2.60
  -5  15   7   14.70    3.90
  -4  15   7   20.00    3.10
  -3  15   7   14.50    1.90
  -2  15   7    6.80    2.20
  -1  15   7   12.90    2.80
   0  15   7    2.40    1.10
   1  15   7   36.70    2.60
   2  15   7   12.50    3.10
   3  15   7    5.80    1.30
   4  15   7    5.80    1.90
  -1  16   7   12.60    1.80
   0  16   7    4.30    1.50
  -2 -16   8    0.00    3.10
  -1 -16   8   31.30    4.30
   0 -16   8   49.60    3.50
   1 -16   8   63.29    3.70
   2 -16   8   18.80    2.70
  -5 -15   8   12.20    7.40
  -4 -15   8   37.90    2.70
  -3 -15   8    6.10    1.40
  -2 -15   8    6.80    2.60
  -1 -15   8   28.00    2.50
   0 -15   8    4.30    1.50
   1 -15   8    8.30    3.20
   2 -15   8    6.00    3.10
   3 -15   8   27.40    2.10
   4 -15   8   50.29    3.70
   5 -15   8   13.00    2.70
  -7 -14   8    9.90    3.80
  -6 -14   8   19.20    4.70
  -5 -14   8    0.00    6.50
  -4 -14   8   16.40    2.30
  -3 -14   8   36.90    2.80
  -2 -14   8   39.10    3.00
  -1 -14   8    0.00    1.80
   0 -14   8   56.89    2.60
   1 -14   8   15.20    2.50
   2 -14   8   10.40    2.50
   3 -14   8    8.70    1.70
   4 -14   8   13.30    2.40
   5 -14   8   29.10    3.80
   6 -14   8   23.80    2.80
  -8 -13   8    7.40    2.50
  -7 -13   8    1.50    3.40
  -6 -13   8    0.00    2.40
  -5 -13   8   11.70    3.20
  -4 -13   8   11.00    2.40
  -3 -13   8    2.90    2.10
  -2 -13   8   34.60    3.10
  -1 -13   8   17.60    2.30
   0 -13   8    5.60    1.80
   1 -13   8    1.80    2.20
   2 -13   8    0.00    3.50
   3 -13   8    1.70    3.10
   4 -13   8    3.70    1.80
   5 -13   8   18.00    4.60
   6 -13   8    7.10    2.60
   7 -13   8   20.70    5.20
   8 -13   8   22.40    3.10
  -9 -12   8    7.30    1.80
  -8 -12   8   14.20    2.10
  -7 -12   8    0.00    3.00
  -6 -12   8    3.10    2.10
  -5 -12   8   89.49    4.70
  -4 -12   8    6.50    2.40
  -3 -12   8   10.50    1.40
  -2 -12   8    5.70    1.60
  -1 -12   8    0.00    3.10
   0 -12   8  131.29    7.20
   1 -12   8   51.69    3.00
   2 -12   8    4.90    1.80
   3 -12   8   11.00    3.20
   4 -12   8    3.00    1.00
   5 -12   8    5.00    2.50
   6 -12   8   36.30    2.40
   7 -12   8   29.70    2.60
   8 -12   8    2.20    2.00
   9 -12   8   11.50    2.60
 -10 -11   8    5.60    1.70
  -9 -11   8   45.70    2.80
  -8 -11   8   32.30    4.20
  -7 -11   8   10.50    2.00
  -6 -11   8    0.00    1.60
  -5 -11   8    0.00    2.10
  -4 -11   8    7.90    1.50
  -3 -11   8    4.60    0.90
  -2 -11   8    0.00    0.90
  -1 -11   8    4.90    2.30
   0 -11   8  105.49    4.10
   1 -11   8   55.09    2.30
   2 -11   8    6.30    1.50
   3 -11   8    3.60    0.70
   4 -11   8   16.00    1.10
   5 -11   8   29.70    2.70
   6 -11   8    6.40    1.90
   7 -11   8    0.20    3.30
   8 -11   8   13.30    2.90
   9 -11   8    7.70    4.30
  10 -11   8    9.00    1.80
 -11 -10   8    8.10    2.10
 -10 -10   8    2.00    1.60
  -9 -10   8   55.89    3.80
  -8 -10   8    4.70    2.40
  -7 -10   8   34.10    2.40
  -6 -10   8   20.30    1.70
  -5 -10   8   90.09    5.70
  -4 -10   8   53.09    1.90
  -3 -10   8  102.29    2.60
  -2 -10   8   36.30    2.60
  -1 -10   8   12.80    1.70
   0 -10   8  143.89   11.20
   1 -10   8   18.70    1.60
   2 -10   8   10.50    1.50
   3 -10   8   53.69    1.70
   4 -10   8   55.49    1.90
   5 -10   8    0.00    4.90
   6 -10   8   27.80    2.30
   7 -10   8    5.10    1.40
   8 -10   8   31.00    3.90
   9 -10   8    5.20    2.10
  10 -10   8    3.20    1.60
 -11  -9   8    8.20    2.60
 -10  -9   8   39.90    2.60
  -9  -9   8    0.70    1.20
  -8  -9   8   15.50    2.60
  -7  -9   8   20.30    2.00
  -6  -9   8   10.90    2.40
  -5  -9   8   23.70    2.20
  -4  -9   8   20.50    1.20
  -3  -9   8   22.90    1.40
  -2  -9   8   40.70    2.70
  -1  -9   8   13.20    2.10
   0  -9   8   25.50    1.60
   1  -9   8   82.59    2.60
   2  -9   8   57.69    3.20
   3  -9   8   32.90    1.40
   4  -9   8    9.80    2.30
   5  -9   8   65.39    3.40
   6  -9   8   27.10    2.30
   7  -9   8    7.20    2.00
   8  -9   8   10.80    2.60
   9  -9   8   44.50    3.60
  10  -9   8   26.90    3.10
  11  -9   8    5.00    2.80
 -12  -8   8    3.70    1.40
 -11  -8   8    1.90    1.40
 -10  -8   8  167.28    5.50
  -9  -8   8   60.69    4.40
  -8  -8   8   60.29    3.40
  -7  -8   8   31.90    3.00
  -6  -8   8    9.90    1.90
  -5  -8   8  426.46   13.90
  -4  -8   8   12.90    0.90
  -3  -8   8    5.20    6.40
  -2  -8   8    4.30    1.50
  -1  -8   8    0.00    1.20
   0  -8   8   62.69    3.50
   1  -8   8   37.10    2.00
   2  -8   8   40.20    1.90
   3  -8   8    3.70    0.80
   4  -8   8   19.00    1.60
   5  -8   8    0.00    3.30
   6  -8   8   77.99    3.90
   7  -8   8   13.20    2.20
   8  -8   8   19.20    1.90
   9  -8   8   36.20    1.90
  10  -8   8   32.50    3.90
  11  -8   8   18.30    2.30
 -12  -7   8   57.39    2.90
 -11  -7   8   50.19    3.40
 -10  -7   8    3.80    1.80
  -9  -7   8   22.60    1.20
  -8  -7   8    4.70    1.00
  -7  -7   8   10.00    2.20
  -6  -7   8    8.10    1.70
  -5  -7   8    5.80    1.50
  -4  -7   8   48.30    1.80
  -3  -7   8    5.80    1.30
  -2  -7   8  162.78    4.60
  -1  -7   8  101.29    3.40
   0  -7   8   32.00    1.30
   1  -7   8   63.19    2.80
   2  -7   8  322.37    5.80
   3  -7   8    1.10    0.90
   4  -7   8  103.29    3.80
   5  -7   8    0.00    3.90
   6  -7   8    2.90    2.00
   7  -7   8   14.50    1.60
   8  -7   8    4.90    1.30
   9  -7   8   21.50    1.60
  10  -7   8    4.00    2.10
  11  -7   8   22.90    2.90
  12  -7   8    4.50    2.10
 -13  -6   8    8.10    1.90
 -12  -6   8   23.50    2.40
 -11  -6   8    1.90    1.30
 -10  -6   8   14.10    1.20
  -9  -6   8   42.90    1.60
  -8  -6   8   76.29    3.70
  -7  -6   8    1.70    1.30
  -6  -6   8    4.40    1.10
  -5  -6   8    3.90    0.80
  -4  -6   8   58.59    1.70
  -3  -6   8   19.60    0.70
  -2  -6   8  117.59    3.60
  -1  -6   8   10.00    2.40
   0  -6   8    1.40    0.30
   1  -6   8   65.99    1.80
   2  -6   8  100.99    2.40
   3  -6   8   33.90    1.20
   4  -6   8   12.40    1.00
   5  -6   8    4.60    2.90
   6  -6   8   10.20    1.90
   7  -6   8   33.30    2.00
   8  -6   8  123.99    4.10
   9  -6   8    5.50    1.70
  10  -6   8   20.30    1.40
  11  -6   8    3.70    1.50
  12  -6   8   23.10    2.40
 -13  -5   8   65.29    3.80
 -12  -5   8   28.20    2.40
 -11  -5   8   36.60    2.40
 -10  -5   8   10.80    1.10
  -9  -5   8   74.89    3.40
  -8  -5   8   20.20    1.50
  -7  -5   8   43.60    1.80
  -6  -5   8   15.90    1.40
  -5  -5   8    0.20    1.30
  -4  -5   8   73.29    1.90
  -3  -5   8   98.89    2.10
  -2  -5   8   32.80    1.00
  -1  -5   8   28.80    1.20
   0  -5   8   15.70    0.60
   1  -5   8   61.99    1.70
   2  -5   8   64.09    2.30
   3  -5   8    2.20    0.50
   4  -5   8   31.10    1.20
   5  -5   8   40.90    3.40
   6  -5   8    1.20    0.90
   7  -5   8    4.20    1.40
   8  -5   8   45.40    2.40
   9  -5   8   16.60    1.50
  10  -5   8   12.60    1.40
  11  -5   8    3.90    1.30
  12  -5   8   23.70    2.00
 -13  -4   8   18.20    2.20
 -12  -4   8    6.10    1.50
 -11  -4   8    3.30    1.20
 -10  -4   8   29.60    1.80
  -9  -4   8   45.40    1.80
  -8  -4   8  177.48    4.40
  -7  -4   8   63.69    2.70
  -6  -4   8   98.29    3.40
  -5  -4   8   24.00    1.40
  -4  -4   8    4.40    0.60
  -3  -4   8   52.29    1.30
  -2  -4   8    0.60    0.60
  -1  -4   8  113.89    2.40
   0  -4   8    8.60    0.50
   1  -4   8   26.30    3.40
   2  -4   8   15.90    0.80
   3  -4   8    3.90    0.60
   4  -4   8   35.20    1.30
   5  -4   8    1.20    0.70
   6  -4   8   15.30    1.10
   7  -4   8   48.20    2.40
   8  -4   8  125.89    3.80
   9  -4   8    3.60    0.90
  10  -4   8   23.00    1.50
  11  -4   8    3.60    1.40
  12  -4   8    6.20    1.10
  13  -4   8    9.60    2.20
 -13  -3   8   12.80    1.70
 -12  -3   8   25.80    2.20
 -11  -3   8   31.90    2.10
 -10  -3   8    1.40    1.00
  -9  -3   8  139.79    3.40
  -8  -3   8  129.29    3.10
  -7  -3   8   58.59    2.50
  -6  -3   8   44.50    5.30
  -5  -3   8  164.08    4.50
  -4  -3   8   64.89    2.10
  -3  -3   8   22.90    1.20
  -2  -3   8  249.38    5.00
  -1  -3   8  345.67    7.20
   0  -3   8    0.50    0.30
   1  -3   8  213.98   10.80
   2  -3   8  516.75   16.00
   3  -3   8   46.40    1.80
   4  -3   8   38.50    1.10
   5  -3   8   60.69    1.70
   6  -3   8    1.70    1.00
   7  -3   8   20.00    1.60
   8  -3   8    8.20    1.10
   9  -3   8   40.20    1.70
  10  -3   8    2.40    1.20
  11  -3   8    4.20    1.00
  12  -3   8    2.00    1.00
  13  -3   8    4.60    1.80
 -14  -2   8    7.70    2.00
 -13  -2   8    7.10    2.20
 -12  -2   8   40.20    2.20
 -11  -2   8   37.70    2.10
 -10  -2   8    2.00    1.00
  -9  -2   8    6.10    0.80
  -8  -2   8   21.30    1.30
  -7  -2   8    0.00    5.90
  -6  -2   8  225.98    5.70
  -5  -2   8   12.20    1.10
  -4  -2   8   62.69    2.60
  -3  -2   8  247.38    4.90
  -2  -2   8  420.56    7.90
  -1  -2   8  306.27    7.10
   0  -2   8   28.80    1.30
   1  -2   8  146.39    5.40
   2  -2   8  145.09    6.20
   3  -2   8  405.26    9.50
   4  -2   8   93.39    1.90
   5  -2   8  222.98    6.90
   6  -2   8   65.69    3.00
   7  -2   8  280.17    6.60
   8  -2   8   30.00    2.10
   9  -2   8   30.30    2.10
  10  -2   8   75.39    2.80
  11  -2   8   17.00    1.40
  12  -2   8   10.40    1.70
  13  -2   8    3.40    1.80
 -14  -1   8    6.10    1.80
 -13  -1   8   10.90    1.50
 -12  -1   8    2.10    1.60
 -11  -1   8    7.90    2.20
 -10  -1   8    5.50    0.90
  -9  -1   8   27.80    1.60
  -8  -1   8    2.90    0.90
  -7  -1   8   35.70    5.20
  -6  -1   8   76.79    2.30
  -5  -1   8   82.89    3.80
  -4  -1   8    5.70    1.10
  -3  -1   8  162.48    2.90
  -2  -1   8  169.68   10.00
  -1  -1   8   40.00    4.10
   0  -1   8   46.60    1.50
   1  -1   8  204.08    4.20
   2  -1   8  154.88   14.40
   3  -1   8  305.47    4.30
   4  -1   8   68.09    1.60
   5  -1   8   44.90    2.70
   6  -1   8    9.40    1.90
   7  -1   8    0.00    1.60
   8  -1   8   11.50    1.70
   9  -1   8   20.10    2.40
  10  -1   8    1.30    0.80
  11  -1   8    2.00    1.00
  12  -1   8   33.90    2.80
  13  -1   8   31.10    2.40
 -14   0   8    5.80    1.60
 -13   0   8    3.70    1.50
 -12   0   8    6.10    1.80
 -11   0   8   15.90    1.60
 -10   0   8   73.29    2.60
  -9   0   8   14.00    1.20
  -8   0   8   69.29    3.70
  -7   0   8  183.28    6.90
  -6   0   8   51.29    1.70
  -5   0   8   58.49    2.10
  -4   0   8   69.69    1.60
  -3   0   8  459.65    8.00
  -2   0   8  123.89    2.90
  -1   0   8    9.20    0.50
   0   0   8  257.57    7.90
   1   0   8    6.30    0.50
   2   0   8  210.88    4.90
   3   0   8  275.57    5.20
   4   0   8   25.40    0.90
   5   0   8  153.78    4.00
   6   0   8   13.80    3.40
   7   0   8    0.00    2.00
   8   0   8   13.60    3.00
   9   0   8   14.70    1.40
  10   0   8   40.50    1.80
  11   0   8    6.60    2.40
  12   0   8    3.20    1.40
  13   0   8    2.00    1.50
 -14   1   8    2.60    1.40
 -13   1   8    4.10    1.50
 -12   1   8   32.90    2.00
 -11   1   8   10.30    1.20
 -10   1   8    2.40    0.70
  -9   1   8   51.59    2.50
  -8   1   8   17.60    2.20
  -7   1   8   73.89    6.00
  -6   1   8  155.88    3.60
  -5   1   8   95.09    2.40
  -4   1   8  207.58    3.40
  -3   1   8  238.78    4.30
  -2   1   8  465.05   12.80
  -1   1   8   50.89    3.70
   0   1   8   29.20    1.50
   1   1   8  160.88    3.80
   2   1   8  889.91   14.80
   3   1   8   57.19    2.00
   4   1   8   29.40    1.40
   5   1   8   91.99    2.80
   6   1   8    0.00    1.50
   7   1   8    0.00    1.80
   8   1   8   62.99    3.10
   9   1   8   32.20    1.50
  10   1   8    2.90    1.00
  11   1   8    4.00    1.70
  12   1   8   13.10    2.20
  13   1   8   32.60    2.60
 -14   2   8   23.10    2.70
 -13   2   8   34.80    2.70
 -12   2   8   18.20    1.80
 -11   2   8   42.80    1.70
 -10   2   8   13.10    1.10
  -9   2   8    5.10    1.10
  -8   2   8   19.80    1.30
  -7   2   8    0.00    3.80
  -6   2   8  322.87    8.10
  -5   2   8    3.30    0.70
  -4   2   8   37.10    1.10
  -3   2   8   89.29    4.00
  -2   2   8  527.45   12.40
  -1   2   8   45.10    4.30
   0   2   8   43.90    1.90
   1   2   8  133.69    5.20
   2   2   8  137.49    3.40
   3   2   8   34.20    1.40
   4   2   8   15.60    3.30
   5   2   8   42.90    4.50
   6   2   8  174.08    4.40
   7   2   8  176.78    5.00
   8   2   8   67.89    2.20
   9   2   8    7.60    0.90
  10   2   8   88.19    3.00
  11   2   8   10.40    1.50
  12   2   8    4.50    1.60
  13   2   8   43.10    2.90
 -13   3   8    8.90    2.20
 -12   3   8    4.50    1.30
 -11   3   8    2.40    0.90
 -10   3   8    5.10    1.30
  -9   3   8   78.29    3.50
  -8   3   8   82.59    2.60
  -7   3   8   16.50    6.00
  -6   3   8  601.04   13.60
  -5   3   8   14.70    1.10
  -4   3   8  155.88    3.00
  -3   3   8    8.80    1.00
  -2   3   8  208.48    6.90
  -1   3   8   97.99    5.00
   0   3   8    1.00    0.50
   1   3   8  113.19    3.10
   2   3   8   78.59    2.20
   3   3   8   18.40    1.30
   4   3   8  375.76    7.20
   5   3   8    4.60    1.20
   6   3   8   44.10    2.20
   7   3   8    5.20    1.00
   8   3   8   22.30    1.20
   9   3   8   38.30    2.10
  10   3   8   11.10    1.30
  11   3   8   32.70    1.70
  12   3   8   21.50    2.30
  13   3   8   18.20    2.30
 -13   4   8   17.50    1.60
 -12   4   8   31.10    2.30
 -11   4   8   33.60    2.20
 -10   4   8   14.70    1.50
  -9   4   8   42.40    1.90
  -8   4   8   32.40    2.80
  -7   4   8  173.18    7.10
  -6   4   8   36.80    2.00
  -5   4   8    3.20    0.70
  -4   4   8    2.90    0.70
  -3   4   8    7.10    0.70
  -2   4   8    7.30    1.00
  -1   4   8   11.00    1.40
   0   4   8  185.68    3.80
   1   4   8   20.90    0.80
   2   4   8   35.30    1.60
   3   4   8   35.10    1.20
   4   4   8   65.49    1.70
   5   4   8  142.89    4.00
   6   4   8   16.10    1.40
   7   4   8    3.20    0.90
   8   4   8   13.10    1.00
   9   4   8   30.50    2.30
  10   4   8    4.90    1.30
  11   4   8   17.70    1.60
  12   4   8    6.20    1.40
 -13   5   8    2.60    1.20
 -12   5   8   50.99    2.60
 -11   5   8   19.10    1.70
 -10   5   8   35.60    1.50
  -9   5   8   35.80    2.00
  -8   5   8   19.20    1.70
  -7   5   8    3.30    1.00
  -6   5   8    2.60    1.00
  -5   5   8    7.80    1.60
  -4   5   8    2.60    0.70
  -3   5   8   16.20    0.80
  -2   5   8   42.60    2.10
  -1   5   8  131.39    3.60
   0   5   8    2.30    0.50
   1   5   8  212.18    3.70
   2   5   8   37.00    2.00
   3   5   8    2.10    0.50
   4   5   8   47.30    1.50
   5   5   8   89.09    3.40
   6   5   8    7.00    1.00
   7   5   8   16.70    1.40
   8   5   8    0.00    1.10
   9   5   8    2.10    1.00
  10   5   8    5.60    1.00
  11   5   8   12.30    2.10
  12   5   8   23.60    2.60
 -13   6   8    1.70    1.10
 -12   6   8    4.60    1.60
 -11   6   8   18.70    1.90
 -10   6   8   30.20    1.80
  -9   6   8    2.00    0.90
  -8   6   8    1.60    0.90
  -7   6   8    9.80    1.30
  -6   6   8   37.20    2.80
  -5   6   8   35.30    2.40
  -4   6   8   37.00    1.20
  -3   6   8   12.70    1.00
  -2   6   8   65.89    2.10
  -1   6   8  141.29    3.00
   0   6   8    0.60    0.40
   1   6   8    8.80    4.40
   2   6   8   38.10    2.00
   3   6   8   32.50    1.70
   4   6   8    8.20    1.10
   5   6   8  271.67    5.90
   6   6   8   17.10    1.40
   7   6   8   29.00    1.60
   8   6   8   14.20    1.90
   9   6   8   26.30    1.40
  10   6   8    9.80    1.30
  11   6   8   21.90    2.10
  12   6   8    3.60    1.20
 -12   7   8    4.90    1.60
 -11   7   8   35.40    2.50
 -10   7   8   10.70    1.40
  -9   7   8   21.60    1.50
  -8   7   8   57.69    2.50
  -7   7   8   38.80    2.30
  -6   7   8   38.40    2.60
  -5   7   8   55.69    2.40
  -4   7   8   86.19    2.70
  -3   7   8    5.10    1.30
  -2   7   8    5.10    0.70
  -1   7   8   22.10    1.70
   0   7   8    1.80    0.60
   1   7   8   31.50    2.00
   2   7   8    3.60    0.90
   3   7   8   12.00    1.50
   4   7   8   30.80    1.90
   5   7   8    4.00    1.10
   6   7   8   42.50    1.80
   7   7   8    8.20    1.90
   8   7   8   23.00    2.10
   9   7   8   10.70    1.20
  10   7   8   31.20    1.70
  11   7   8    8.30    1.90
 -12   8   8    9.70    2.30
 -11   8   8   10.80    2.20
 -10   8   8   15.10    2.20
  -9   8   8   80.09    2.80
  -8   8   8    2.10    0.90
  -7   8   8   17.70    2.10
  -6   8   8   65.49    3.50
  -5   8   8   65.99    3.20
  -4   8   8    7.20    2.40
  -3   8   8   52.59    2.80
  -2   8   8    9.70    1.30
  -1   8   8    2.30    2.10
   0   8   8  198.28    9.20
   1   8   8    5.20    1.50
   2   8   8   47.20    4.50
   3   8   8  132.99    6.60
   4   8   8    5.80    0.90
   5   8   8   34.00    1.90
   6   8   8   18.00    1.50
   7   8   8   31.20    2.10
   8   8   8   18.40    2.10
   9   8   8   66.79    4.10
  10   8   8    6.10    1.80
  11   8   8   13.20    2.00
 -11   9   8   21.60    2.40
 -10   9   8   18.00    2.50
  -9   9   8    2.10    1.00
  -8   9   8   20.60    2.10
  -7   9   8   30.00    1.90
  -6   9   8   15.90    3.00
  -5   9   8   26.10    3.40
  -4   9   8  157.78    6.70
  -3   9   8   19.50    1.50
  -2   9   8   10.00    1.30
  -1   9   8   12.00    1.60
   0   9   8    7.10    1.50
   1   9   8    0.00    1.40
   2   9   8    7.40    1.60
   3   9   8    2.70    1.20
   4   9   8  132.29    4.00
   5   9   8   45.60    2.70
   6   9   8    3.70    2.20
   7   9   8   14.70    2.00
   8   9   8    6.80    2.30
   9   9   8   28.80    4.80
  10   9   8   28.50    2.40
 -11  10   8   10.10    1.90
 -10  10   8    5.30    1.50
  -9  10   8   10.90    1.80
  -8  10   8   14.20    2.60
  -7  10   8    0.00    1.60
  -6  10   8    2.10    2.30
  -5  10   8  331.17    8.70
  -4  10   8   84.49    2.60
  -3  10   8    3.30    0.90
  -2  10   8   14.20    1.90
  -1  10   8   87.59    3.60
   0  10   8    6.90    1.10
   1  10   8   87.59    3.70
   2  10   8   48.00    2.60
   3  10   8   47.20    2.50
   4  10   8   12.10    1.30
   5  10   8    1.70    2.50
   6  10   8  117.29    4.00
   7  10   8   57.79    3.20
   8  10   8    5.80    3.20
   9  10   8   31.90    3.00
  10  10   8    0.90    1.40
 -10  11   8    2.70    1.40
  -9  11   8    2.90    2.70
  -8  11   8    0.00    2.30
  -7  11   8   47.20    2.50
  -6  11   8    9.50    2.30
  -5  11   8   50.29    3.50
  -4  11   8   16.00    1.40
  -3  11   8    1.10    0.90
  -2  11   8    8.30    1.50
  -1  11   8    8.20    2.50
   0  11   8   18.60    1.90
   1  11   8   96.39    2.80
   2  11   8   12.60    1.50
   3  11   8   27.00    1.70
   4  11   8    2.90    1.40
   5  11   8    3.60    2.10
   6  11   8   10.80    1.80
   7  11   8    4.90    1.70
   8  11   8    4.00    2.50
   9  11   8    0.50    1.40
  -9  12   8   10.40    1.90
  -8  12   8    3.60    1.30
  -7  12   8    0.00    2.60
  -6  12   8   15.40    2.70
  -5  12   8   53.89    3.00
  -4  12   8   58.49    3.00
  -3  12   8    7.80    2.70
  -2  12   8   37.80    2.80
  -1  12   8   68.49    3.20
   0  12   8  279.47    9.80
   1  12   8   23.90    3.10
   2  12   8    5.90    2.80
   3  12   8   48.60    2.80
   4  12   8   23.30    3.20
   5  12   8   41.70    2.80
   6  12   8    0.00    1.80
   7  12   8    1.60    2.50
   8  12   8   72.59    5.00
  -8  13   8   10.80    1.60
  -7  13   8    0.00    4.20
  -6  13   8    4.10    3.60
  -5  13   8    0.20    1.90
  -4  13   8   79.29    4.20
  -3  13   8   10.60    2.70
  -2  13   8   13.20    1.80
  -1  13   8   12.50    1.90
   0  13   8    2.20    1.20
   1  13   8    5.60    2.50
   2  13   8    1.20    0.90
   3  13   8   13.60    3.80
   4  13   8   78.09    5.10
   5  13   8   37.30    3.80
   6  13   8   26.60    3.10
   7  13   8    9.40    4.10
  -6  14   8   21.10    2.20
  -5  14   8   24.80    2.30
  -4  14   8   35.10    2.60
  -3  14   8    2.70    2.90
  -2  14   8   13.40    2.40
  -1  14   8   11.20    2.10
   0  14   8   10.80    2.20
   1  14   8    0.00    1.60
   2  14   8   54.09    3.30
   3  14   8    1.90    1.60
   4  14   8   14.70    2.30
   5  14   8   31.00    4.20
  -4  15   8    4.50    1.80
  -3  15   8    9.80    1.60
  -2  15   8   16.60    3.30
  -1  15   8   13.40    2.60
   0  15   8   15.40    1.90
   1  15   8   27.20    2.40
   2  15   8   15.40    2.90
   3  15   8    0.90    1.30
  -4 -15   9   41.10    2.90
  -3 -15   9    2.20    1.30
  -2 -15   9   52.89    7.80
  -1 -15   9    2.50    2.00
   0 -15   9    5.90    1.30
   1 -15   9    5.80    2.70
   2 -15   9   70.79   16.10
   3 -15   9   11.50    1.70
   4 -15   9   49.99    3.30
  -6 -14   9    1.30    3.10
  -5 -14   9    4.00    2.80
  -4 -14   9   24.80    2.10
  -3 -14   9    7.10    1.60
  -2 -14   9   17.80    2.60
  -1 -14   9    6.40    2.10
   0 -14   9   85.19    4.20
   1 -14   9    2.80    2.80
   2 -14   9    0.00    2.50
   3 -14   9   46.80    4.00
   4 -14   9    0.80    2.40
   5 -14   9  114.09    7.80
   6 -14   9    4.70    1.70
  -8 -13   9   58.79    3.40
  -7 -13   9   17.10    5.20
  -6 -13   9    0.00    2.80
  -5 -13   9    0.00    3.10
  -4 -13   9    0.00    3.90
  -3 -13   9    0.60    2.50
  -2 -13   9   10.90    2.20
  -1 -13   9   35.20    4.90
   0 -13   9    7.20    1.80
   1 -13   9    0.00    2.80
   2 -13   9    5.90    1.90
   3 -13   9   15.50    4.20
   4 -13   9    3.40    9.10
   5 -13   9   37.30    3.20
   6 -13   9   28.20    3.50
   7 -13   9    0.00    2.70
  -9 -12   9    4.00    1.80
  -8 -12   9   13.90    2.50
  -7 -12   9    1.00    2.80
  -6 -12   9    0.00    2.00
  -5 -12   9   49.90    2.70
  -4 -12   9   12.20    2.80
  -3 -12   9    5.50    1.00
  -2 -12   9   15.70    2.70
  -1 -12   9   40.80    3.10
   0 -12   9   77.09    6.30
   1 -12   9   54.59    3.20
   2 -12   9   14.10    2.30
   3 -12   9   14.10    2.80
   4 -12   9   14.40    3.00
   5 -12   9    4.70    1.80
   6 -12   9   13.20    3.10
   7 -12   9    2.00    2.30
   8 -12   9    7.70    3.00
 -10 -11   9   11.80    2.40
  -9 -11   9   19.70    2.60
  -8 -11   9    2.80    3.30
  -7 -11   9   25.20    2.50
  -6 -11   9    0.00    1.70
  -5 -11   9   20.00    3.00
  -4 -11   9    6.20    0.90
  -3 -11   9    3.60    0.90
  -2 -11   9    5.80    1.10
  -1 -11   9    0.00    1.90
   0 -11   9   46.50    2.30
   1 -11   9   36.40    1.90
   2 -11   9    3.80    1.50
   3 -11   9   18.10    1.60
   4 -11   9    5.10    1.40
   5 -11   9   12.40    2.40
   6 -11   9    2.50    2.50
   7 -11   9    0.00    2.40
   8 -11   9    0.00    2.70
   9 -11   9   34.60    5.20
 -10 -10   9    7.30    1.60
  -9 -10   9    3.00    2.20
  -8 -10   9   58.99    4.60
  -7 -10   9    5.80    1.10
  -6 -10   9    9.70    2.00
  -5 -10   9  101.79    5.10
  -4 -10   9   99.79    3.40
  -3 -10   9   35.40    1.70
  -2 -10   9   52.89    2.90
  -1 -10   9   35.50    2.80
   0 -10   9    6.10    0.80
   1 -10   9   25.40    2.50
   2 -10   9   95.99    3.40
   3 -10   9  201.18    4.80
   4 -10   9   18.80    1.20
   5 -10   9   30.70    3.10
   6 -10   9   29.30    2.60
   7 -10   9   32.10    3.30
   8 -10   9   15.60    3.70
   9 -10   9   16.30    2.60
  10 -10   9    1.60    1.40
 -11  -9   9   17.70    2.50
 -10  -9   9    2.00    1.10
  -9  -9   9   54.59    6.10
  -8  -9   9   52.89    3.60
  -7  -9   9   27.60    2.00
  -6  -9   9    0.00    2.10
  -5  -9   9   30.10    3.30
  -4  -9   9  155.48    3.90
  -3  -9   9   87.49    2.50
  -2  -9   9   23.10    2.90
  -1  -9   9   27.90    1.80
   0  -9   9   46.70    2.10
   1  -9   9   11.10    1.80
   2  -9   9   49.70    2.80
   3  -9   9   15.40    1.00
   4  -9   9  191.18    7.60
   5  -9   9    4.20    1.80
   6  -9   9   31.00    3.00
   7  -9   9   45.00    2.40
   8  -9   9    7.40    2.60
   9  -9   9   11.00    2.40
  10  -9   9    0.00    1.90
 -12  -8   9    1.40    1.40
 -11  -8   9   52.29    2.60
 -10  -8   9   30.70    3.20
  -9  -8   9   59.39    5.00
  -8  -8   9   16.30    1.40
  -7  -8   9   38.30    2.20
  -6  -8   9   19.60    4.00
  -5  -8   9   83.09    3.90
  -4  -8   9    8.20    0.90
  -3  -8   9   87.99    7.30
  -2  -8   9  178.28    7.50
  -1  -8   9   64.59    2.80
   0  -8   9  176.28    9.30
   1  -8   9   20.80    3.20
   2  -8   9  367.56    9.60
   3  -8   9  190.38    5.30
   4  -8   9   12.70    2.10
   5  -8   9   19.70    2.20
   6  -8   9    1.40    2.00
   7  -8   9   47.90    2.30
   8  -8   9   59.59    3.30
   9  -8   9   25.30    2.10
  10  -8   9    4.60    3.10
  11  -8   9    8.70    2.50
 -12  -7   9   60.59    2.90
 -11  -7   9    5.50    1.60
 -10  -7   9    0.20    1.40
  -9  -7   9    4.90    1.30
  -8  -7   9    4.20    3.60
  -7  -7   9    7.40    2.00
  -6  -7   9   16.80    1.50
  -5  -7   9   97.79    3.00
  -4  -7   9  220.88    5.30
  -3  -7   9   38.40    2.60
  -2  -7   9    5.20    1.20
  -1  -7   9   25.20    2.10
   0  -7   9   14.80    1.00
   1  -7   9   18.20    2.00
   2  -7   9  122.39    2.90
   3  -7   9   17.20    1.70
   4  -7   9   65.99    3.00
   5  -7   9  115.39    5.70
   6  -7   9   14.90    2.20
   7  -7   9    0.00    1.30
   8  -7   9    5.10    1.40
   9  -7   9    0.90    1.10
  10  -7   9    1.20    1.50
  11  -7   9    5.40    1.60
 -12  -6   9   14.60    1.70
 -11  -6   9    5.80    2.50
 -10  -6   9    4.90    1.40
  -9  -6   9   18.40    1.60
  -8  -6   9  156.08    8.90
  -7  -6   9    3.90    1.70
  -6  -6   9    8.50    1.20
  -5  -6   9   29.20    2.10
  -4  -6   9   80.39    2.10
  -3  -6   9   68.89    1.90
  -2  -6   9   84.29    3.50
  -1  -6   9  694.53   20.50
   0  -6   9  466.45    9.30
   1  -6   9  514.35   12.00
   2  -6   9   98.69    4.50
   3  -6   9  250.27    6.20
   4  -6   9   21.50    1.10
   5  -6   9   79.09   10.10
   6  -6   9   41.00    2.00
   7  -6   9   30.90    1.60
   8  -6   9   16.30    1.80
   9  -6   9    7.70    1.40
  10  -6   9    3.70    1.20
  11  -6   9   32.50    2.20
  12  -6   9   11.90    1.90
 -13  -5   9   38.30    2.70
 -12  -5   9   54.39    3.60
 -11  -5   9    7.00    1.60
 -10  -5   9   17.40    1.60
  -9  -5   9    1.50    0.80
  -8  -5   9   28.90    1.60
  -7  -5   9   20.60    1.20
  -6  -5   9    2.50    0.80
  -5  -5   9   73.09    5.10
  -4  -5   9   55.29    1.80
  -3  -5   9   10.30    0.70
  -2  -5   9   34.50    1.50
  -1  -5   9   10.20    0.60
   0  -5   9   56.19    1.60
   1  -5   9    2.30    0.60
   2  -5   9   29.40    5.00
   3  -5   9   29.30    1.40
   4  -5   9  102.49    2.80
   5  -5   9    8.30    0.90
   6  -5   9  162.18    5.30
   7  -5   9    2.40    1.50
   8  -5   9   10.00    2.30
   9  -5   9    5.10    1.20
  10  -5   9    0.80    0.90
  11  -5   9    3.80    1.40
  12  -5   9    7.70    1.40
 -13  -4   9   14.10    2.10
 -12  -4   9    8.60    1.60
 -11  -4   9   32.50    1.80
 -10  -4   9   27.40    1.40
  -9  -4   9   29.10    1.50
  -8  -4   9  123.79    3.00
  -7  -4   9   49.20    1.90
  -6  -4   9    7.50    1.20
  -5  -4   9    9.20    2.70
  -4  -4   9   31.10    1.50
  -3  -4   9    2.30    0.60
  -2  -4   9    0.90    0.60
  -1  -4   9   45.30    1.30
   0  -4   9  186.08    4.40
   1  -4   9    5.10    1.90
   2  -4   9  141.69    3.90
   3  -4   9  137.99    3.50
   4  -4   9    8.80    1.70
   5  -4   9   56.89    2.30
   6  -4   9   57.09    2.50
   7  -4   9   14.50    2.40
   8  -4   9    7.80    1.30
   9  -4   9  138.89    3.60
  10  -4   9    2.90    1.20
  11  -4   9    5.00    1.90
  12  -4   9   30.30    1.90
 -13  -3   9   24.40    2.60
 -12  -3   9    8.80    1.60
 -11  -3   9   29.50    2.50
 -10  -3   9   13.90    1.40
  -9  -3   9    7.40    1.00
  -8  -3   9   65.29    1.80
  -7  -3   9    4.60    1.10
  -6  -3   9   48.80    2.10
  -5  -3   9    2.00    1.00
  -4  -3   9  152.28    5.90
  -3  -3   9   28.30    1.30
  -2  -3   9   22.30    0.90
  -1  -3   9  217.18    4.60
   0  -3   9   17.90    0.70
   1  -3   9   41.40    4.50
   2  -3   9  199.38    3.60
   3  -3   9   65.69    2.20
   4  -3   9    2.30    0.50
   5  -3   9   20.20    1.00
   6  -3   9   11.00    1.70
   7  -3   9   21.60    2.20
   8  -3   9   55.09    2.80
   9  -3   9    6.90    1.20
  10  -3   9    1.80    1.80
  11  -3   9   14.40    1.50
  12  -3   9   21.10    1.70
 -13  -2   9   42.60    2.80
 -12  -2   9    2.80    1.70
 -11  -2   9   26.30    3.00
 -10  -2   9   10.40    1.30
  -9  -2   9   15.40    1.20
  -8  -2   9   71.29    2.40
  -7  -2   9   16.00    6.40
  -6  -2   9    0.00    3.10
  -5  -2   9  143.79    6.20
  -4  -2   9  116.69    3.50
  -3  -2   9  119.19    2.60
  -2  -2   9  592.94   10.20
  -1  -2   9   47.70    3.30
   0  -2   9  232.58    7.20
   1  -2   9   64.79    3.00
   2  -2   9   91.19    4.50
   3  -2   9   99.89    3.60
   4  -2   9   58.99    1.60
   5  -2   9  251.57    8.70
   6  -2   9   51.29    5.80
   7  -2   9   53.69    1.90
   8  -2   9   60.69    3.40
   9  -2   9   21.10    2.40
  10  -2   9    1.40    1.10
  11  -2   9   62.89    2.60
  12  -2   9    1.40    1.30
  13  -2   9    9.30    1.70
 -13  -1   9    6.30    1.50
 -12  -1   9   14.70    2.00
 -11  -1   9   24.60    3.20
 -10  -1   9   17.70    1.70
  -9  -1   9    7.70    1.00
  -8  -1   9    9.30    1.10
  -7  -1   9   22.90    2.00
  -6  -1   9   49.10    2.00
  -5  -1   9    4.10    1.80
  -4  -1   9    0.40    0.60
  -3  -1   9   42.90    1.00
  -2  -1   9   46.00    1.30
  -1  -1   9  158.38    6.00
   0  -1   9   11.80    0.70
   1  -1   9  284.77    6.30
   2  -1   9  107.69    5.50
   3  -1   9  110.79    2.40
   4  -1   9   37.90    1.10
   5  -1   9    5.90    1.10
   6  -1   9   20.50    3.30
   7  -1   9    0.00    2.10
   8  -1   9   39.30    3.20
   9  -1   9    9.00    1.30
  10  -1   9    1.80    1.20
  11  -1   9   17.50    1.70
  12  -1   9    2.90    1.40
  13  -1   9    4.30    1.80
 -13   0   9    6.50    1.80
 -12   0   9    2.50    1.60
 -11   0   9   22.50    1.70
 -10   0   9   13.10    1.20
  -9   0   9    1.90    0.80
  -8   0   9   44.40    3.70
  -7   0   9   60.89    2.30
  -6   0   9  107.59    3.60
  -5   0   9   11.90    3.00
  -4   0   9  149.49    3.60
  -3   0   9   26.50    0.80
  -2   0   9  284.57    6.70
  -1   0   9  459.55    8.20
   0   0   9  237.18    7.30
   1   0   9    0.00    7.90
   2   0   9  204.08    4.80
   3   0   9  255.97    4.90
   4   0   9   74.99    1.90
   5   0   9  297.67   10.70
   6   0   9   63.29    2.40
   7   0   9   48.20    2.00
   8   0   9    0.00    2.40
   9   0   9    4.30    0.90
  10   0   9    2.30    0.80
  11   0   9   18.00    2.50
  12   0   9    9.60    1.80
  13   0   9    2.60    1.70
 -13   1   9    5.40    1.80
 -12   1   9   14.00    2.10
 -11   1   9   30.80    1.90
 -10   1   9    3.70    1.00
  -9   1   9   11.40    1.80
  -8   1   9   23.20    3.70
  -7   1   9   67.09    2.10
  -6   1   9   19.70    1.50
  -5   1   9   54.49    2.00
  -4   1   9    5.00    0.60
  -3   1   9   11.00    0.60
  -2   1   9  111.79    4.80
  -1   1   9   97.09    4.00
   0   1   9   21.30    1.00
   1   1   9   65.59    3.90
   2   1   9  454.65    7.50
   3   1   9  114.29    2.10
   4   1   9   33.70    1.40
   5   1   9    2.80    1.60
   6   1   9   85.99    5.30
   7   1   9   73.79    3.00
   8   1   9    5.50    2.70
   9   1   9   29.20    1.70
  10   1   9   10.90    1.30
  11   1   9    8.50    1.60
  12   1   9    3.90    1.60
  13   1   9   19.00    2.10
 -13   2   9   21.50    2.50
 -12   2   9    3.90    1.20
 -11   2   9   49.99    1.90
 -10   2   9   84.29    2.60
  -9   2   9   79.19    3.40
  -8   2   9   89.99    3.20
  -7   2   9    5.00    5.30
  -6   2   9    0.00    3.40
  -5   2   9  152.68    4.90
  -4   2   9   17.80    1.00
  -3   2   9    4.80    1.10
  -2   2   9  169.78    5.40
  -1   2   9   84.59    5.20
   0   2   9  303.57    9.90
   1   2   9  209.58    6.20
   2   2   9   20.10    1.10
   3   2   9   93.49    2.10
   4   2   9    7.60    2.10
   5   2   9  106.59    4.80
   6   2   9   24.30    5.60
   7   2   9   15.50    1.50
   8   2   9  136.99    3.40
   9   2   9   12.30    1.20
  10   2   9   23.30    2.50
  11   2   9    5.00    1.70
  12   2   9    8.10    1.60
 -13   3   9   34.30    3.40
 -12   3   9    2.10    1.10
 -11   3   9  167.28    3.90
 -10   3   9   23.30    1.50
  -9   3   9   24.00    1.60
  -8   3   9    4.70    1.20
  -7   3   9   13.60    1.90
  -6   3   9    8.80    1.30
  -5   3   9   48.60    1.40
  -4   3   9   72.89    1.60
  -3   3   9   35.90    2.20
  -2   3   9   54.79    2.80
  -1   3   9   43.40    2.00
   0   3   9    5.20    0.80
   1   3   9   20.30    1.50
   2   3   9   90.69    2.20
   3   3   9   44.30    2.00
   4   3   9   32.10    1.30
   5   3   9   46.50    2.60
   6   3   9   50.89    2.90
   7   3   9  125.69    3.30
   8   3   9  301.87    5.30
   9   3   9    3.60    1.00
  10   3   9    3.50    1.10
  11   3   9   15.50    1.40
  12   3   9   14.60    2.10
 -13   4   9    3.20    1.20
 -12   4   9    8.30    1.80
 -11   4   9  123.59    4.30
 -10   4   9    7.30    1.20
  -9   4   9    5.00    0.80
  -8   4   9   16.80    2.00
  -7   4   9    2.70    1.30
  -6   4   9   14.50    1.20
  -5   4   9   80.69    2.00
  -4   4   9   82.09    2.20
  -3   4   9  108.29    2.80
  -2   4   9   25.60    2.70
  -1   4   9    2.70    1.30
   0   4   9  135.69    3.00
   1   4   9   20.00    0.90
   2   4   9   19.60    1.80
   3   4   9    6.60    0.80
   4   4   9   11.30    1.10
   5   4   9   26.10    2.30
   6   4   9   64.79    2.20
   7   4   9    3.40    1.00
   8   4   9    8.50    1.20
   9   4   9   13.50    1.40
  10   4   9    5.00    1.20
  11   4   9   15.30    1.40
  12   4   9    1.80    1.60
 -13   5   9   33.70    2.10
 -12   5   9   18.70    1.70
 -11   5   9    1.80    1.40
 -10   5   9   22.60    1.30
  -9   5   9   19.00    1.30
  -8   5   9    1.40    1.30
  -7   5   9   35.40    1.80
  -6   5   9    4.50    1.40
  -5   5   9  191.38    4.80
  -4   5   9   55.19    1.80
  -3   5   9   17.50    1.00
  -2   5   9   91.59    3.60
  -1   5   9    2.20    0.60
   0   5   9    2.60    0.50
   1   5   9    1.60    0.50
   2   5   9  211.18    5.00
   3   5   9   23.40    1.30
   4   5   9    9.20    1.20
   5   5   9   20.90    2.20
   6   5   9    5.20    1.00
   7   5   9   13.70    1.10
   8   5   9   54.09    3.10
   9   5   9    2.80    1.20
  10   5   9    2.90    0.90
  11   5   9   22.60    1.80
  12   5   9    6.10    1.60
 -12   6   9    4.50    1.50
 -11   6   9    2.20    1.30
 -10   6   9   12.20    1.30
  -9   6   9    5.30    1.00
  -8   6   9   23.40    1.70
  -7   6   9    1.60    1.40
  -6   6   9   14.70    1.70
  -5   6   9  147.49    6.40
  -4   6   9   32.70    1.30
  -3   6   9  121.69    3.50
  -2   6   9   29.30    2.20
  -1   6   9    9.20    1.00
   0   6   9   20.50    1.00
   1   6   9    7.40    2.00
   2   6   9   83.49    5.90
   3   6   9   28.10    1.50
   4   6   9   13.90    1.00
   5   6   9    8.80    1.70
   6   6   9   39.50    2.50
   7   6   9   42.60    2.00
   8   6   9   29.30    2.50
   9   6   9    6.60    1.10
  10   6   9   10.60    1.70
  11   6   9    4.40    1.80
 -12   7   9   26.20    2.30
 -11   7   9   72.09    3.10
 -10   7   9   21.20    1.50
  -9   7   9    3.00    1.00
  -8   7   9    5.60    1.10
  -7   7   9    7.20    1.50
  -6   7   9   21.10    2.50
  -5   7   9   85.49    3.90
  -4   7   9   16.10    1.60
  -3   7   9    9.90    1.30
  -2   7   9    3.20    0.80
  -1   7   9    5.40    1.80
   0   7   9    1.90    0.80
   1   7   9   19.90    3.20
   2   7   9   12.70    1.10
   3   7   9   35.40    5.50
   4   7   9   51.79    2.00
   5   7   9    2.00    1.10
   6   7   9    2.80    1.30
   7   7   9   10.00    2.20
   8   7   9   12.20    1.90
   9   7   9    8.20    1.40
  10   7   9    6.50    1.70
  11   7   9    3.60    1.70
 -11   8   9    4.00    1.70
 -10   8   9    8.70    2.00
  -9   8   9   76.39    2.90
  -8   8   9    9.10    1.40
  -7   8   9   17.20    2.30
  -6   8   9    0.00    1.40
  -5   8   9    1.30    1.90
  -4   8   9   10.30    1.60
  -3   8   9    9.20    1.40
  -2   8   9   88.99    3.60
  -1   8   9   10.80    9.10
   0   8   9    5.60    1.40
   1   8   9  125.99    8.00
   2   8   9    9.60    2.70
   3   8   9   99.99    4.70
   4   8   9    9.10    1.10
   5   8   9   23.20    2.80
   6   8   9    6.90    1.20
   7   8   9   83.09    3.40
   8   8   9   25.50    2.40
   9   8   9   40.80    4.20
  10   8   9   11.90    2.40
 -11   9   9   27.20    2.60
 -10   9   9   43.30    2.80
  -9   9   9   14.40    2.20
  -8   9   9    4.80    1.40
  -7   9   9   17.30    2.20
  -6   9   9   42.30    2.60
  -5   9   9   41.60    2.90
  -4   9   9    5.10    2.30
  -3   9   9   48.10    2.00
  -2   9   9   20.90    2.00
  -1   9   9    6.50    2.00
   0   9   9    1.90    1.10
   1   9   9   27.30    1.80
   2   9   9    3.20    1.40
   3   9   9   31.50    2.10
   4   9   9   28.90    1.80
   5   9   9    7.10    1.80
   6   9   9   18.60    1.90
   7   9   9   10.90    1.70
   8   9   9    2.10    1.70
   9   9   9   16.80    4.20
  10   9   9   60.09    3.60
 -10  10   9   14.50    1.90
  -9  10   9   74.89    3.40
  -8  10   9    4.10    2.30
  -7  10   9   22.10    3.30
  -6  10   9   15.00    4.10
  -5  10   9   89.49    3.80
  -4  10   9    1.10    0.90
  -3  10   9   95.89    3.00
  -2  10   9   94.69    3.50
  -1  10   9  134.59    3.70
   0  10   9    3.10    0.90
   1  10   9   15.10    3.30
   2  10   9   33.50    2.70
   3  10   9   86.39    2.80
   4  10   9    2.20    1.00
   5  10   9   44.90    2.80
   6  10   9  102.59    4.70
   7  10   9   27.80    2.70
   8  10   9    5.90    2.40
   9  10   9   25.00    2.70
  -9  11   9    0.30    1.90
  -8  11   9   18.40    2.50
  -7  11   9    0.00    1.80
  -6  11   9    2.20    2.00
  -5  11   9   27.50    2.90
  -4  11   9   37.20    2.00
  -3  11   9   23.10    1.70
  -2  11   9   49.80    3.00
  -1  11   9    0.00    1.50
   0  11   9    3.00    1.20
   1  11   9   17.00    1.50
   2  11   9   64.99    2.90
   3  11   9   28.80    1.80
   4  11   9    7.40    1.50
   5  11   9    5.50    2.40
   6  11   9   20.10    2.90
   7  11   9   21.70    2.80
   8  11   9    3.20    1.90
  -8  12   9   25.70    2.50
  -7  12   9   23.50    2.30
  -6  12   9    7.80    2.20
  -5  12   9   24.30    3.10
  -4  12   9   78.09    3.30
  -3  12   9   55.39    4.00
  -2  12   9    9.50    2.70
  -1  12   9    0.00    2.00
   0  12   9    2.60    2.80
   1  12   9    5.50    2.10
   2  12   9    8.30    1.60
   3  12   9    9.10    1.90
   4  12   9   34.30    3.90
   5  12   9    5.10    2.00
   6  12   9   12.40    2.60
   7  12   9   27.90    3.00
  -7  13   9   36.60    3.60
  -6  13   9   13.90    3.40
  -5  13   9   24.90    3.00
  -4  13   9    1.60    1.10
  -3  13   9   17.30    6.10
  -2  13   9   18.60    3.30
  -1  13   9   20.00    2.90
   0  13   9    1.40    1.30
   1  13   9   31.10    4.50
   2  13   9   28.30    2.40
   3  13   9   14.40    5.10
   4  13   9   10.70    2.80
   5  13   9    8.50    1.80
   6  13   9   15.20    2.90
  -5  14   9   54.89    3.60
  -4  14   9    2.20    1.80
  -3  14   9    7.60    1.70
  -2  14   9    1.70    1.40
  -1  14   9   61.89    6.60
   0  14   9   15.30    1.80
   1  14   9    5.30    3.70
   2  14   9    1.70    1.40
   3  14   9    9.70    1.70
   4  14   9   27.80    3.10
  -3  15   9   33.50    2.70
  -2  15   9    3.80    1.90
  -1  15   9    0.00    2.30
   0  15   9    2.60    1.30
   1  15   9    3.60    1.70
  -3 -15  10    6.50    1.80
  -2 -15  10    7.90    3.00
  -1 -15  10    9.50    2.60
   0 -15  10    0.90    1.10
   1 -15  10    3.00    3.70
   2 -15  10    9.20    3.50
   3 -15  10   33.50    3.40
  -5 -14  10   67.89    8.40
  -4 -14  10   12.60    2.20
  -3 -14  10    2.60    1.80
  -2 -14  10    7.70    3.00
  -1 -14  10   13.00    4.20
   0 -14  10    5.50    1.40
   1 -14  10  110.29    7.00
   2 -14  10    7.90    2.30
   3 -14  10   23.60    2.50
   4 -14  10   46.70    4.70
   5 -14  10   10.60    2.70
  -7 -13  10    9.20    3.10
  -6 -13  10    0.00    3.50
  -5 -13  10   52.59    5.50
  -4 -13  10    9.50    6.90
  -3 -13  10   14.80    3.20
  -2 -13  10   17.00    4.20
  -1 -13  10   15.50    2.40
   0 -13  10    1.60    1.30
   1 -13  10   10.10    2.10
   2 -13  10    6.60    3.20
   3 -13  10    5.00    5.10
   4 -13  10   16.00    3.70
   5 -13  10   11.30    3.50
   6 -13  10   32.90    3.70
  -8 -12  10    7.00    2.80
  -7 -12  10   16.70    2.60
  -6 -12  10   13.00    2.30
  -5 -12  10    3.00    1.70
  -4 -12  10   15.90    3.10
  -3 -12  10    7.30    1.40
  -2 -12  10    9.00    1.30
  -1 -12  10   11.20    1.90
   0 -12  10   28.40    2.20
   1 -12  10   20.80    1.90
   2 -12  10   13.20    2.30
   3 -12  10    3.20    2.60
   4 -12  10    7.60    1.90
   5 -12  10   11.90    3.90
   6 -12  10    0.00    2.80
   7 -12  10    7.40    2.30
   8 -12  10   45.70    3.90
  -9 -11  10   41.60    3.60
  -8 -11  10   18.30    2.90
  -7 -11  10   23.20    2.30
  -6 -11  10    4.20    1.90
  -5 -11  10    2.70    1.70
  -4 -11  10   11.60    1.70
  -3 -11  10   13.70    1.40
  -2 -11  10   47.40    3.30
  -1 -11  10    3.60    1.40
   0 -11  10    5.80    0.90
   1 -11  10   40.50    1.60
   2 -11  10   32.40    3.00
   3 -11  10   34.20    2.50
   4 -11  10    2.10    0.80
   5 -11  10    4.80    1.40
   6 -11  10    3.50    2.40
   7 -11  10    8.90    2.30
   8 -11  10    0.00    2.40
   9 -11  10    5.70    2.60
 -10 -10  10    4.00    1.50
  -9 -10  10    1.50    1.80
  -8 -10  10   41.80    4.40
  -7 -10  10   30.90    3.30
  -6 -10  10    8.00    2.40
  -5 -10  10   45.10    2.40
  -4 -10  10    3.80    0.80
  -3 -10  10   55.19    2.40
  -2 -10  10  135.09    5.70
  -1 -10  10  107.09    2.90
   0 -10  10    3.00    0.80
   1 -10  10    0.00    2.80
   2 -10  10   65.39    3.60
   3 -10  10  100.39    3.00
   4 -10  10   32.10    2.10
   5 -10  10   11.90    1.90
   6 -10  10   21.30    4.10
   7 -10  10    0.00    2.20
   8 -10  10    2.00    3.10
   9 -10  10   41.70    3.60
 -11  -9  10   32.40    3.00
 -10  -9  10    2.00    1.50
  -9  -9  10   45.60    6.90
  -8  -9  10   49.70    3.80
  -7  -9  10   15.90    2.10
  -6  -9  10   52.79    2.50
  -5  -9  10   21.80    1.80
  -4  -9  10   19.80    1.00
  -3  -9  10   75.79    2.60
  -2  -9  10    9.40    1.30
  -1  -9  10   10.10    1.70
   0  -9  10    1.40    0.90
   1  -9  10   60.59    2.20
   2  -9  10    2.10    1.10
   3  -9  10    8.20    0.90
   4  -9  10   18.50    1.20
   5  -9  10    2.30    1.50
   6  -9  10    5.80    1.50
   7  -9  10   32.90    2.30
   8  -9  10    5.60    2.30
   9  -9  10    1.40    1.60
  10  -9  10   16.40    2.70
 -11  -8  10   19.80    2.30
 -10  -8  10    2.40    1.60
  -9  -8  10   68.49    6.10
  -8  -8  10   38.50    4.00
  -7  -8  10    0.00    1.90
  -6  -8  10   50.39    1.70
  -5  -8  10   17.80    2.10
  -4  -8  10    2.70    0.90
  -3  -8  10   75.59    5.90
  -2  -8  10    9.50    1.60
  -1  -8  10  364.16   15.30
   0  -8  10   24.90    1.60
   1  -8  10  638.84   18.70
   2  -8  10   42.80    2.40
   3  -8  10   42.10    3.40
   4  -8  10   34.40    2.70
   5  -8  10   11.90    1.50
   6  -8  10   16.90    2.00
   7  -8  10   74.49    3.80
   8  -8  10    3.80    1.60
   9  -8  10    7.80    1.60
  10  -8  10    7.50    3.70
 -12  -7  10    3.20    1.30
 -11  -7  10    4.50    1.40
 -10  -7  10    0.40    1.60
  -9  -7  10    1.70    1.70
  -8  -7  10   36.80    3.10
  -7  -7  10    9.10    1.30
  -6  -7  10   10.80    1.60
  -5  -7  10   50.19    3.10
  -4  -7  10   64.69    2.60
  -3  -7  10  344.47   12.10
  -2  -7  10    5.00    1.20
  -1  -7  10  176.58    4.50
   0  -7  10    5.20    0.80
   1  -7  10   26.50    3.30
   2  -7  10   88.39    2.40
   3  -7  10  306.57   10.20
   4  -7  10  208.98    6.10
   5  -7  10   11.00    1.90
   6  -7  10    1.80    1.90
   7  -7  10   50.79    3.10
   8  -7  10    3.40    1.30
   9  -7  10   11.20    1.40
  10  -7  10   19.20    2.10
  11  -7  10   16.00    2.00
 -12  -6  10   19.20    2.00
 -11  -6  10    1.50    1.70
 -10  -6  10    6.40    1.30
  -9  -6  10   26.10    1.80
  -8  -6  10    5.50    1.90
  -7  -6  10    3.80    1.40
  -6  -6  10    7.50    1.40
  -5  -6  10   21.50    1.70
  -4  -6  10    8.10    1.00
  -3  -6  10   90.09    2.40
  -2  -6  10  313.07   11.70
  -1  -6  10   14.50    4.00
   0  -6  10  433.16    9.30
   1  -6  10   72.29    2.60
   2  -6  10  429.86   12.70
   3  -6  10  167.88    4.30
   4  -6  10   26.90    1.20
   5  -6  10    0.00    2.40
   6  -6  10    2.00    1.50
   7  -6  10    2.30    0.90
   8  -6  10   62.49    3.30
   9  -6  10    7.50    1.30
  10  -6  10   15.70    1.40
  11  -6  10   10.60    1.80
 -12  -5  10   15.20    2.10
 -11  -5  10   34.20    2.00
 -10  -5  10    3.30    0.80
  -9  -5  10    2.00    1.10
  -8  -5  10   28.20    2.30
  -7  -5  10   60.49    1.90
  -6  -5  10  169.88    4.60
  -5  -5  10  104.29    6.40
  -4  -5  10   72.39    2.10
  -3  -5  10   60.09    1.50
  -2  -5  10   15.90    2.50
  -1  -5  10  118.29    3.80
   0  -5  10    4.10    0.50
   1  -5  10  231.48    5.50
   2  -5  10   99.09    3.90
   3  -5  10    7.10    0.90
   4  -5  10   42.10    1.70
   5  -5  10   72.89    8.50
   6  -5  10    0.20    0.10
   7  -5  10   69.99    3.30
   8  -5  10   32.50    3.00
   9  -5  10    7.50    1.40
  10  -5  10    3.70    1.30
  11  -5  10    2.60    1.20
  12  -5  10    2.30    1.30
 -13  -4  10   13.00    2.10
 -12  -4  10   11.00    1.30
 -11  -4  10    6.00    1.20
 -10  -4  10    2.50    1.00
  -9  -4  10  121.49    3.10
  -8  -4  10   14.00    1.10
  -7  -4  10  104.09    2.80
  -6  -4  10   52.59    2.80
  -5  -4  10  112.39    5.10
  -4  -4  10   39.70    1.70
  -3  -4  10   20.90    0.90
  -2  -4  10  446.96    9.00
  -1  -4  10  352.06    6.80
   0  -4  10  118.19    2.60
   1  -4  10  235.28   11.80
   2  -4  10  200.68    7.00
   3  -4  10   36.10    1.30
   4  -4  10   56.79    1.90
   5  -4  10    1.30    1.60
   6  -4  10  203.68    6.60
   7  -4  10  162.08    3.70
   8  -4  10    5.80    1.60
   9  -4  10   34.30    2.00
  10  -4  10   18.50    1.40
  11  -4  10    3.30    1.40
  12  -4  10   18.50    1.90
 -13  -3  10    5.00    1.80
 -12  -3  10   26.70    2.20
 -11  -3  10    4.30    1.50
 -10  -3  10    3.90    1.20
  -9  -3  10    0.60    1.20
  -8  -3  10  167.38    4.10
  -7  -3  10    2.40    1.20
  -6  -3  10  100.89    3.30
  -5  -3  10   32.10    3.50
  -4  -3  10   32.30    1.80
  -3  -3  10   20.00    2.00
  -2  -3  10   75.49    2.00
  -1  -3  10  310.47    7.00
   0  -3  10    9.10    0.60
   1  -3  10  125.49    6.70
   2  -3  10  164.88    3.50
   3  -3  10   14.00    5.20
   4  -3  10  138.79    4.10
   5  -3  10   66.79    3.50
   6  -3  10   20.20    2.30
   7  -3  10  131.39    6.40
   8  -3  10    8.30    1.30
   9  -3  10   11.80    1.30
  10  -3  10   14.30    1.70
  11  -3  10   10.50    1.50
  12  -3  10   37.90    2.80
 -13  -2  10    5.40    1.80
 -12  -2  10    4.10    1.50
 -11  -2  10   11.90    1.70
 -10  -2  10   35.20    2.60
  -9  -2  10   48.50    1.90
  -8  -2  10    2.60    1.00
  -7  -2  10    6.70    2.00
  -6  -2  10  216.18    6.80
  -5  -2  10   86.79    7.50
  -4  -2  10   89.79    3.60
  -3  -2  10   15.10    0.90
  -2  -2  10    3.70    0.60
  -1  -2  10   55.59    2.60
   0  -2  10  285.37    7.60
   1  -2  10   41.70    2.10
   2  -2  10   64.39    2.10
   3  -2  10    2.50    0.80
   4  -2  10   54.29    1.70
   5  -2  10   90.69    4.70
   6  -2  10  323.57   11.20
   7  -2  10   28.30    2.90
   8  -2  10   44.70    2.10
   9  -2  10   16.90    2.70
  10  -2  10   45.40    3.20
  11  -2  10   47.80    2.40
  12  -2  10    2.90    1.30
 -13  -1  10    6.10    2.00
 -12  -1  10   38.20    2.60
 -11  -1  10   25.40    2.50
 -10  -1  10   19.20    1.60
  -9  -1  10    0.60    0.80
  -8  -1  10   89.29    3.20
  -7  -1  10   62.29    2.90
  -6  -1  10   33.40    3.20
  -5  -1  10    7.30    1.00
  -4  -1  10   66.09    1.80
  -3  -1  10   24.00    0.70
  -2  -1  10  153.48    3.20
  -1  -1  10   52.59    2.00
   0  -1  10   44.00    1.60
   1  -1  10    0.00    2.00
   2  -1  10   20.40    2.40
   3  -1  10    3.80    0.70
   4  -1  10    6.60    0.80
   5  -1  10   43.90    2.20
   6  -1  10   14.90    1.50
   7  -1  10   12.10    1.90
   8  -1  10   25.50    2.20
   9  -1  10    0.30    1.40
  10  -1  10    0.80    0.70
  11  -1  10   38.70    3.00
  12  -1  10   37.50    3.00
 -13   0  10    2.80    1.50
 -12   0  10    2.80    1.30
 -11   0  10   63.89    3.40
 -10   0  10    2.30    0.90
  -9   0  10   11.10    1.20
  -8   0  10   16.60    3.00
  -7   0  10    0.00    2.00
  -6   0  10    0.00    2.10
  -5   0  10  143.99    9.60
  -4   0  10  123.89    2.90
  -3   0  10    3.00    0.40
  -2   0  10  126.79    3.00
  -1   0  10  240.18    4.50
   0   0  10  207.28    5.90
   1   0  10    0.00    3.90
   2   0  10   12.20    1.10
   3   0  10   60.99    1.60
   4   0  10   74.69    1.90
   5   0  10    0.00    1.40
   6   0  10    0.00    2.50
   7   0  10    4.90    1.50
   8   0  10    6.90    1.90
   9   0  10   43.10    3.00
  10   0  10   72.29    2.60
  11   0  10   13.90    2.80
  12   0  10   42.00    2.90
 -13   1  10   11.80    2.00
 -12   1  10   22.40    2.90
 -11   1  10    1.50    1.00
 -10   1  10   16.50    1.50
  -9   1  10   30.70    3.50
  -8   1  10   31.80    5.50
  -7   1  10   33.50    2.90
  -6   1  10  126.69    5.20
  -5   1  10    1.00    0.70
  -4   1  10    3.30    0.60
  -3   1  10   18.60    0.90
  -2   1  10  218.38    4.50
  -1   1  10  209.68    3.70
   0   1  10   12.20    1.00
   1   1  10   22.80    3.20
   2   1  10    6.30    1.10
   3   1  10   79.89    1.50
   4   1  10   57.59    2.20
   5   1  10    0.00    2.20
   6   1  10   25.10    2.20
   7   1  10   14.70    1.70
   8   1  10   32.60    2.30
   9   1  10    8.70    1.10
  10   1  10   10.10    1.60
  11   1  10    7.00    1.90
  12   1  10   13.30    2.30
 -13   2  10    6.50    2.60
 -12   2  10   36.10    2.50
 -11   2  10   12.60    1.40
 -10   2  10    3.80    1.10
  -9   2  10   77.79    3.10
  -8   2  10  208.48    6.10
  -7   2  10    6.80    1.60
  -6   2  10  149.88    6.60
  -5   2  10   27.50    1.50
  -4   2  10   38.90    1.30
  -3   2  10   86.49    2.50
  -2   2  10   71.09    3.00
  -1   2  10   31.00    2.60
   0   2  10  103.99    4.90
   1   2  10  110.79    3.80
   2   2  10   75.59    3.30
   3   2  10   60.29    1.70
   4   2  10  125.99    5.90
   5   2  10   81.39    4.50
   6   2  10    0.00    5.70
   7   2  10   35.70    4.30
   8   2  10    5.00    0.80
   9   2  10   44.50    1.80
  10   2  10    5.10    2.10
  11   2  10   28.00    2.40
  12   2  10    7.70    1.50
 -13   3  10   22.30    2.70
 -12   3  10    5.70    1.50
 -11   3  10   82.89    2.60
 -10   3  10   51.79    2.20
  -9   3  10   30.90    1.50
  -8   3  10  105.79    4.50
  -7   3  10   97.79    5.40
  -6   3  10   31.90    1.70
  -5   3  10  101.29    2.90
  -4   3  10   39.80    1.50
  -3   3  10  312.57    6.20
  -2   3  10   27.70    2.10
  -1   3  10  111.29    6.30
   0   3  10    5.40    0.80
   1   3  10  211.78    5.30
   2   3  10    1.10    0.70
   3   3  10  362.56    7.90
   4   3  10   36.90    2.00
   5   3  10  144.69    3.80
   6   3  10   36.00    5.80
   7   3  10   36.40    2.60
   8   3  10   37.60    1.60
   9   3  10    5.30    0.90
  10   3  10   22.00    2.00
  11   3  10   12.40    1.60
  12   3  10    4.80    1.50
 -13   4  10   10.10    1.60
 -12   4  10   19.90    1.50
 -11   4  10    4.30    1.50
 -10   4  10    3.00    1.10
  -9   4  10   55.99    2.60
  -8   4  10   13.70    1.30
  -7   4  10    4.30    1.20
  -6   4  10    8.20    1.10
  -5   4  10   52.49    2.30
  -4   4  10    5.80    1.00
  -3   4  10   41.00    1.40
  -2   4  10  288.47    8.50
  -1   4  10  190.48   10.30
   0   4  10  712.13   12.50
   1   4  10  310.97    5.10
   2   4  10  413.66    9.20
   3   4  10   10.40    1.10
   4   4  10   41.40    1.40
   5   4  10   17.10    1.80
   6   4  10   10.60    1.80
   7   4  10   21.10    1.60
   8   4  10    4.00    1.10
   9   4  10   58.39    2.40
  10   4  10   30.50    2.20
  11   4  10   12.10    1.50
  12   4  10    4.00    1.90
 -12   5  10   19.10    1.80
 -11   5  10   29.60    1.90
 -10   5  10    3.80    1.20
  -9   5  10   10.80    1.10
  -8   5  10   10.30    1.90
  -7   5  10    3.10    1.00
  -6   5  10   10.20    1.00
  -5   5  10   72.89    3.30
  -4   5  10    4.80    0.90
  -3   5  10    8.00    0.70
  -2   5  10   18.90    2.20
  -1   5  10    3.20    1.00
   0   5  10   33.00    1.20
   1   5  10   14.00    0.80
   2   5  10    7.80    2.10
   3   5  10   20.30    1.40
   4   5  10   86.89    2.30
   5   5  10    5.80    1.30
   6   5  10  162.88    4.00
   7   5  10    2.10    1.10
   8   5  10    4.40    1.60
   9   5  10    3.60    1.10
  10   5  10    3.20    1.20
  11   5  10   26.10    2.00
 -12   6  10    8.50    1.70
 -11   6  10    7.20    1.50
 -10   6  10    3.30    1.00
  -9   6  10    9.20    1.10
  -8   6  10   58.89    2.50
  -7   6  10    9.10    1.50
  -6   6  10   55.99    2.60
  -5   6  10   68.89    3.20
  -4   6  10    9.70    1.10
  -3   6  10   64.19    2.40
  -2   6  10   11.70    1.90
  -1   6  10   43.10    1.90
   0   6  10  163.58    4.00
   1   6  10   21.10    4.10
   2   6  10   63.29    4.00
   3   6  10    6.60    0.80
   4   6  10    7.60    1.10
   5   6  10    1.10    1.00
   6   6  10    5.20    1.20
   7   6  10    3.10    1.40
   8   6  10   25.30    2.30
   9   6  10   13.20    1.10
  10   6  10    5.00    1.20
  11   6  10    4.60    1.60
 -11   7  10    8.10    1.30
 -10   7  10    8.30    1.40
  -9   7  10    6.30    1.10
  -8   7  10    1.00    0.90
  -7   7  10    1.80    1.60
  -6   7  10    8.60    1.90
  -5   7  10   28.50    2.00
  -4   7  10   59.89    3.40
  -3   7  10   93.99    3.40
  -2   7  10   17.50    1.50
  -1   7  10    7.60    1.30
   0   7  10   17.40    1.60
   1   7  10    0.00    1.20
   2   7  10   51.09    3.40
   3   7  10   10.20    1.60
   4   7  10   33.10    2.10
   5   7  10    2.10    1.70
   6   7  10   21.80    2.30
   7   7  10   16.40    2.20
   8   7  10   42.30    2.90
   9   7  10    1.50    1.40
  10   7  10    7.70    1.70
 -11   8  10   21.30    2.60
 -10   8  10    1.70    1.70
  -9   8  10   22.00    2.30
  -8   8  10   40.80    2.70
  -7   8  10   11.80    3.60
  -6   8  10    7.60    1.50
  -5   8  10   20.80    2.10
  -4   8  10    8.20    3.30
  -3   8  10  123.09    3.90
  -2   8  10   30.90    2.10
  -1   8  10   29.20    2.80
   0   8  10   39.80    2.70
   1   8  10   33.80    2.10
   2   8  10    0.00    1.50
   3   8  10    2.50    2.30
   4   8  10   74.69    2.90
   5   8  10   10.60    1.80
   6   8  10    6.10    2.10
   7   8  10   13.10    2.80
   8   8  10   14.60    2.20
   9   8  10    3.90    2.90
  10   8  10   12.50    3.70
 -10   9  10   27.50    2.30
  -9   9  10    3.20    1.40
  -8   9  10    1.60    1.10
  -7   9  10    0.00    2.30
  -6   9  10    1.20    1.50
  -5   9  10    5.60    1.60
  -4   9  10    3.70    2.40
  -3   9  10   11.20    1.30
  -2   9  10   74.69    4.00
  -1   9  10    9.60    1.60
   0   9  10    5.00    1.10
   1   9  10   21.70    1.50
   2   9  10   35.00    3.00
   3   9  10    1.30    1.10
   4   9  10   20.20    1.50
   5   9  10   12.70    2.00
   6   9  10    2.70    2.30
   7   9  10   16.40    2.20
   8   9  10    2.10    2.40
   9   9  10    8.50    3.60
 -10  10  10    7.50    1.40
  -9  10  10   52.79    3.00
  -8  10  10   13.80    2.60
  -7  10  10   30.60    2.80
  -6  10  10   55.19    4.90
  -5  10  10    1.00    2.60
  -4  10  10    7.70    1.30
  -3  10  10   29.00    1.90
  -2  10  10   67.49    3.00
  -1  10  10   16.70    1.60
   0  10  10   28.00    1.80
   1  10  10    0.00    1.50
   2  10  10   23.80    2.20
   3  10  10    2.10    0.90
   4  10  10   11.70    1.30
   5  10  10   78.49    3.90
   6  10  10   37.20    3.20
   7  10  10    1.30    1.90
   8  10  10   27.60    3.20
   9  10  10    3.60    2.10
  -9  11  10   22.70    2.30
  -8  11  10    3.40    2.10
  -7  11  10    0.00    2.10
  -6  11  10   33.40    3.00
  -5  11  10    3.10    2.10
  -4  11  10   10.30    1.40
  -3  11  10    9.90    1.50
  -2  11  10    1.60    1.90
  -1  11  10   51.19    3.70
   0  11  10    0.90    1.00
   1  11  10   94.39    3.60
   2  11  10   14.90    1.70
   3  11  10    9.50    1.30
   4  11  10    5.90    1.70
   5  11  10    5.40    1.80
   6  11  10    1.00    1.80
   7  11  10    0.00    2.20
   8  11  10    2.60    2.10
  -8  12  10   15.70    2.00
  -7  12  10    1.30    2.50
  -6  12  10    8.80    2.60
  -5  12  10    2.60    1.70
  -4  12  10    3.20    1.30
  -3  12  10    2.40    1.60
  -2  12  10    5.40    2.30
  -1  12  10    0.00    2.50
   0  12  10    1.20    1.50
   1  12  10   32.50    3.30
   2  12  10   11.70    1.90
   3  12  10   15.00    2.10
   4  12  10    6.00    3.20
   5  12  10   33.00    2.90
   6  12  10   25.70    2.70
   7  12  10    3.80    3.20
  -6  13  10   14.10    3.20
  -5  13  10    3.10    1.70
  -4  13  10   12.30    1.80
  -3  13  10    4.60    4.00
  -2  13  10   26.80    2.80
  -1  13  10    8.20    3.20
   0  13  10    1.10    1.50
   1  13  10    2.20    4.70
   2  13  10   49.60    3.80
   3  13  10    7.90    2.20
   4  13  10   31.40    3.30
   5  13  10    9.50    2.20
  -4  14  10   19.80    2.40
  -3  14  10    6.00    1.70
  -2  14  10   16.60    2.70
  -1  14  10  108.39    5.70
   0  14  10   11.80    1.90
   1  14  10   20.00    5.60
   2  14  10   11.70    2.10
   3  14  10    5.10    1.70
   0 -15  11    2.80    1.70
  -4 -14  11   79.99    4.40
  -3 -14  11    9.70    1.90
  -2 -14  11   98.39    7.00
  -1 -14  11    9.70    5.50
   0 -14  11   19.40    2.20
   1 -14  11   39.40    6.20
   2 -14  11    5.20    5.30
   3 -14  11   35.30    3.10
   4 -14  11    5.50    1.90
  -6 -13  11    0.00    3.00
  -5 -13  11    0.00    2.50
  -4 -13  11    0.00    4.50
  -3 -13  11    3.40    3.20
  -2 -13  11    1.40    3.40
  -1 -13  11    2.30    3.40
   0 -13  11    7.50    2.60
   1 -13  11    2.00    2.50
   2 -13  11    8.20    2.60
   3 -13  11    9.60    4.70
   4 -13  11   39.90    5.60
   5 -13  11   28.70    4.30
   6 -13  11   35.40    2.50
  -8 -12  11  104.59    5.40
  -7 -12  11    0.00    2.80
  -6 -12  11    5.20    2.40
  -5 -12  11    4.10    2.60
  -4 -12  11    8.80    3.90
  -3 -12  11    0.10    1.80
  -2 -12  11   23.60    2.80
  -1 -12  11   22.40    2.70
   0 -12  11    1.30    1.90
   1 -12  11   51.89    2.90
   2 -12  11   13.00    2.20
   3 -12  11   32.60    4.40
   4 -12  11    5.20    2.50
   5 -12  11   37.00    3.80
   6 -12  11   28.90    3.90
   7 -12  11    7.10    3.00
  -9 -11  11    1.70    1.60
  -8 -11  11   20.60    3.10
  -7 -11  11   11.40    2.30
  -6 -11  11    9.60    1.70
  -5 -11  11    0.00    1.60
  -4 -11  11   21.20    1.90
  -3 -11  11    2.80    1.20
  -2 -11  11   19.30    2.30
  -1 -11  11   21.60    2.50
   0 -11  11    0.20    1.00
   1 -11  11   28.70    2.60
   2 -11  11   28.30    2.40
   3 -11  11    0.00    1.70
   4 -11  11   27.70    2.70
   5 -11  11   17.50    2.50
   6 -11  11    4.50    2.10
   7 -11  11   11.20    3.40
   8 -11  11    5.50    2.80
  -9 -10  11    2.60    1.90
  -8 -10  11   19.20    4.30
  -7 -10  11   17.20    1.90
  -6 -10  11   14.30    3.10
  -5 -10  11    0.00    1.60
  -4 -10  11    7.80    1.10
  -3 -10  11   52.79    1.90
  -2 -10  11   66.09    3.00
  -1 -10  11   51.39    2.00
   0 -10  11    8.70    1.30
   1 -10  11    0.00    1.80
   2 -10  11   27.10    2.40
   3 -10  11    2.70    0.70
   4 -10  11    3.60    1.70
   5 -10  11   39.80    2.90
   6 -10  11   15.90    2.50
   7 -10  11    7.70    1.80
   8 -10  11    2.80    3.50
   9 -10  11    3.60    2.10
 -10  -9  11    6.00    1.80
  -9  -9  11   27.00    9.30
  -8  -9  11    6.30    2.50
  -7  -9  11    2.10    1.80
  -6  -9  11    0.00    1.50
  -5  -9  11    7.90    2.00
  -4  -9  11    8.00    0.70
  -3  -9  11   34.10    1.80
  -2  -9  11   24.90    2.50
  -1  -9  11    2.20    1.50
   0  -9  11    4.70    1.20
   1  -9  11    6.00    1.50
   2  -9  11   45.90    2.70
   3  -9  11    5.00    1.40
   4  -9  11    7.70    2.00
   5  -9  11   42.60    3.00
   6  -9  11    1.40    2.30
   7  -9  11   18.50    2.10
   8  -9  11   10.10    3.40
   9  -9  11    1.40    1.20
 -11  -8  11    7.80    1.90
 -10  -8  11    0.90    1.70
  -9  -8  11    4.50    3.90
  -8  -8  11   13.00    1.60
  -7  -8  11   45.70    3.70
  -6  -8  11   12.50    1.80
  -5  -8  11   13.90    1.80
  -4  -8  11   43.30    2.40
  -3  -8  11   40.30    3.00
  -2  -8  11   13.30    1.30
  -1  -8  11    3.00    2.00
   0  -8  11   67.19    3.80
   1  -8  11   23.30    2.00
   2  -8  11    2.00    0.60
   3  -8  11   55.69    3.20
   4  -8  11   12.60    1.40
   5  -8  11    3.70    1.50
   6  -8  11    0.00    1.60
   7  -8  11   11.40    2.30
   8  -8  11    3.50    1.60
   9  -8  11    0.60    1.10
  10  -8  11   16.30    3.60
 -11  -7  11   29.20    3.00
 -10  -7  11    3.10    2.50
  -9  -7  11    5.00    1.10
  -8  -7  11    1.60    1.60
  -7  -7  11   46.30    3.70
  -6  -7  11   11.80    1.60
  -5  -7  11    9.00    1.60
  -4  -7  11  132.09    3.60
  -3  -7  11   44.40    3.10
  -2  -7  11  237.88    7.50
  -1  -7  11    5.40    1.40
   0  -7  11    8.90    1.40
   1  -7  11    2.90    1.10
   2  -7  11   51.79    2.80
   3  -7  11   46.90    3.10
   4  -7  11   27.40    1.80
   5  -7  11   16.50    1.80
   6  -7  11   37.40    3.90
   7  -7  11   11.00    2.00
   8  -7  11    7.10    1.60
   9  -7  11    3.00    1.30
  10  -7  11   18.70    2.00
 -12  -6  11    4.50    1.50
 -11  -6  11    2.30    1.30
 -10  -6  11   68.79    2.80
  -9  -6  11    2.30    1.00
  -8  -6  11   33.90    3.40
  -7  -6  11   12.70    1.30
  -6  -6  11    5.70    1.20
  -5  -6  11   57.19    2.30
  -4  -6  11   28.30    1.30
  -3  -6  11    6.40    0.70
  -2  -6  11  317.97   10.20
  -1  -6  11   17.60    2.10
   0  -6  11  543.45   11.00
   1  -6  11   10.70    1.30
   2  -6  11   57.99    4.90
   3  -6  11  169.78    4.70
   4  -6  11    4.50    0.90
   5  -6  11    0.00    2.90
   6  -6  11   73.79    4.00
   7  -6  11   20.90    1.90
   8  -6  11    0.50    0.80
   9  -6  11    4.70    1.50
  10  -6  11   18.70    2.00
  11  -6  11   20.30    2.20
 -12  -5  11    4.90    1.80
 -11  -5  11    5.00    1.30
 -10  -5  11    3.50    0.90
  -9  -5  11    2.00    1.10
  -8  -5  11   54.29    2.90
  -7  -5  11  182.08    4.40
  -6  -5  11    3.80    1.20
  -5  -5  11   47.40    5.10
  -4  -5  11   46.40    1.90
  -3  -5  11   77.09    2.10
  -2  -5  11  246.58    8.30
  -1  -5  11   52.29    1.60
   0  -5  11   70.59    2.10
   1  -5  11    7.10    1.50
   2  -5  11   15.20    2.20
   3  -5  11  252.67    6.80
   4  -5  11   11.60    1.90
   5  -5  11   73.19    8.70
   6  -5  11   80.29    3.00
   7  -5  11   35.40    1.70
   8  -5  11   24.50    1.80
   9  -5  11    7.00    1.30
  10  -5  11   10.60    1.70
  11  -5  11    4.30    2.00
 -12  -4  11    2.00    1.50
 -11  -4  11   12.70    1.70
 -10  -4  11   10.80    1.10
  -9  -4  11    0.90    0.90
  -8  -4  11   43.20    2.00
  -7  -4  11    2.40    1.50
  -6  -4  11  217.48    8.10
  -5  -4  11  102.89    4.30
  -4  -4  11   31.40    1.40
  -3  -4  11   42.90    1.30
  -2  -4  11   23.00    3.10
  -1  -4  11   98.59    2.50
   0  -4  11    7.50    0.60
   1  -4  11   70.99    4.90
   2  -4  11  122.89    8.20
   3  -4  11   40.60    1.60
   4  -4  11   44.10    2.40
   5  -4  11   30.30    2.80
   6  -4  11    7.60    1.60
   7  -4  11   22.50    1.90
   8  -4  11   10.70    1.50
   9  -4  11   25.20    1.70
  10  -4  11    9.10    1.50
  11  -4  11    3.60    1.70
 -12  -3  11   11.50    1.70
 -11  -3  11   18.60    2.40
 -10  -3  11    6.70    1.60
  -9  -3  11    1.90    0.80
  -8  -3  11   47.80    1.50
  -7  -3  11  269.77    6.40
  -6  -3  11  134.19    5.40
  -5  -3  11   13.00    3.60
  -4  -3  11   99.59    5.30
  -3  -3  11    9.40    2.00
  -2  -3  11   17.50    1.00
  -1  -3  11   37.80    2.30
   0  -3  11   10.40    0.90
   1  -3  11   23.00    1.90
   2  -3  11   31.60    1.60
   3  -3  11    6.90    2.20
   4  -3  11    6.50    0.90
   5  -3  11    3.60    1.10
   6  -3  11    6.70    1.30
   7  -3  11    2.40    1.10
   8  -3  11    8.70    1.20
   9  -3  11   73.89    2.80
  10  -3  11   70.99    3.50
  11  -3  11    8.80    1.80
  12  -3  11    2.40    1.40
 -13  -2  11   12.10    1.80
 -12  -2  11    5.40    1.50
 -11  -2  11    3.80    1.70
 -10  -2  11  105.29    5.10
  -9  -2  11    2.40    0.80
  -8  -2  11   15.90    1.70
  -7  -2  11   47.40    3.20
  -6  -2  11  450.15   11.30
  -5  -2  11  219.88    7.70
  -4  -2  11   56.29    3.40
  -3  -2  11   48.30    1.40
  -2  -2  11   25.30    1.10
  -1  -2  11  111.69    4.60
   0  -2  11    9.00    0.80
   1  -2  11   62.59    3.70
   2  -2  11   23.10    1.80
   3  -2  11  128.19    3.60
   4  -2  11   20.70    1.10
   5  -2  11  138.89    4.80
   6  -2  11  133.19    6.10
   7  -2  11  187.58    4.70
   8  -2  11    9.70    1.70
   9  -2  11   11.00    1.90
  10  -2  11   27.30    2.90
  11  -2  11    2.70    1.20
  12  -2  11    5.00    1.40
 -13  -1  11    8.60    1.90
 -12  -1  11    7.60    1.40
 -11  -1  11    4.70    1.40
 -10  -1  11    2.20    0.90
  -9  -1  11    1.70    0.80
  -8  -1  11    1.50    1.10
  -7  -1  11   10.50    1.80
  -6  -1  11   21.40    1.60
  -5  -1  11    4.80    1.60
  -4  -1  11  156.08    5.40
  -3  -1  11   23.20    0.80
  -2  -1  11   12.00    1.00
  -1  -1  11    0.00    5.30
   0  -1  11    4.70    0.60
   1  -1  11  286.57    5.70
   2  -1  11    5.80    1.20
   3  -1  11   74.29    2.00
   4  -1  11   67.39    2.30
   5  -1  11  102.69    3.40
   6  -1  11   21.00    1.40
   7  -1  11   33.20    2.00
   8  -1  11    3.80    1.40
   9  -1  11    1.60    2.40
  10  -1  11   21.20    2.00
  11  -1  11   10.40    1.70
  12  -1  11   38.50    3.50
 -13   0  11   13.20    1.70
 -12   0  11   15.10    1.80
 -11   0  11   43.50    3.40
 -10   0  11   66.59    2.30
  -9   0  11    6.10    1.10
  -8   0  11    0.00    1.90
  -7   0  11    3.60    1.40
  -6   0  11   55.79    2.50
  -5   0  11    5.70    1.20
  -4   0  11   52.69    1.60
  -3   0  11   64.89    1.70
  -2   0  11   33.60    1.20
  -1   0  11  138.79    3.00
   0   0  11   15.30    0.80
   1   0  11    3.80    2.70
   2   0  11    3.90    0.70
   3   0  11   64.19    1.70
   4   0  11   14.60    0.90
   5   0  11  120.99    4.90
   6   0  11    9.00    1.60
   7   0  11   18.30    1.80
   8   0  11   25.10    2.00
   9   0  11    6.20    1.70
  10   0  11   65.39    2.40
  11   0  11   47.80    3.80
  12   0  11   22.80    2.60
 -13   1  11   10.20    2.40
 -12   1  11   10.00    1.90
 -11   1  11   10.60    1.50
 -10   1  11    1.60    0.90
  -9   1  11    3.60    1.80
  -8   1  11   47.80    2.90
  -7   1  11   12.70    1.50
  -6   1  11    7.80    1.70
  -5   1  11   68.39    2.60
  -4   1  11  212.38    4.80
  -3   1  11   10.70    0.80
  -2   1  11   10.20    1.20
  -1   1  11   80.09    5.30
   0   1  11    6.00    0.60
   1   1  11  202.78    5.20
   2   1  11   17.40    1.10
   3   1  11    6.60    0.80
   4   1  11  150.18    5.50
   5   1  11   97.69    3.60
   6   1  11    0.00    1.60
   7   1  11   43.10    2.50
   8   1  11    6.70    1.90
   9   1  11   75.09    3.10
  10   1  11    5.50    1.80
  11   1  11    7.00    2.60
  12   1  11   56.49    3.60
 -12   2  11    1.60    1.40
 -11   2  11   81.79    3.00
 -10   2  11   27.40    2.10
  -9   2  11   65.49    3.40
  -8   2  11   14.00    2.30
  -7   2  11  158.88    4.60
  -6   2  11   92.99    6.50
  -5   2  11    8.20    1.20
  -4   2  11  141.99    3.10
  -3   2  11    3.00    1.40
  -2   2  11   79.89    3.10
  -1   2  11  101.29    4.40
   0   2  11    2.50    0.70
   1   2  11   37.30    3.90
   2   2  11   22.00    2.30
   3   2  11   11.80    1.10
   4   2  11   29.20    2.60
   5   2  11   87.59    3.70
   6   2  11   14.00    2.70
   7   2  11   39.90    3.10
   8   2  11   14.70    2.00
   9   2  11    6.60    1.00
  10   2  11    0.00    3.70
  11   2  11    3.30    1.70
  12   2  11    7.30    2.30
 -12   3  11    1.80    1.30
 -11   3  11   15.50    1.60
 -10   3  11   11.10    1.60
  -9   3  11    9.20    1.20
  -8   3  11   15.00    1.60
  -7   3  11   45.40    4.60
  -6   3  11  266.07    5.90
  -5   3  11   81.19    2.50
  -4   3  11  192.78    4.50
  -3   3  11  100.89    4.20
  -2   3  11   92.69    3.00
  -1   3  11    0.00    2.90
   0   3  11    1.60    0.80
   1   3  11  139.39    3.90
   2   3  11  132.69    3.00
   3   3  11    6.10    1.90
   4   3  11  171.28    4.20
   5   3  11   17.60    1.60
   6   3  11    7.00    1.30
   7   3  11    2.70    1.20
   8   3  11    8.90    1.20
   9   3  11   24.30    2.10
  10   3  11    2.10    1.60
  11   3  11    3.90    1.30
 -12   4  11   20.90    2.00
 -11   4  11    6.30    1.30
 -10   4  11    4.00    1.30
  -9   4  11   23.30    1.30
  -8   4  11   13.70    1.40
  -7   4  11   14.50    2.00
  -6   4  11    2.50    1.20
  -5   4  11   12.80    1.40
  -4   4  11  203.88    4.10
  -3   4  11  113.89    2.90
  -2   4  11  440.96   11.70
  -1   4  11  135.19   14.10
   0   4  11  350.86    7.40
   1   4  11  486.95    8.30
   2   4  11  403.86   10.10
   3   4  11  205.28    4.20
   4   4  11   39.30    1.50
   5   4  11   28.30    1.80
   6   4  11  154.48    5.30
   7   4  11    5.00    1.10
   8   4  11   34.00    2.00
   9   4  11   41.90    1.80
  10   4  11    2.20    1.20
  11   4  11   13.40    1.70
 -12   5  11    7.70    1.70
 -11   5  11    4.50    1.50
 -10   5  11    6.40    1.40
  -9   5  11    6.70    1.20
  -8   5  11    1.90    1.90
  -7   5  11   28.80    1.30
  -6   5  11   76.39    3.40
  -5   5  11   74.49    3.30
  -4   5  11  125.19    2.90
  -3   5  11  118.09    4.00
  -2   5  11   47.20    2.40
  -1   5  11   51.09    1.90
   0   5  11   15.50    0.90
   1   5  11   22.80    1.40
   2   5  11  135.39    4.00
   3   5  11  187.48    4.40
   4   5  11  214.08    4.70
   5   5  11   49.70    3.10
   6   5  11   26.30    1.30
   7   5  11    2.50    1.10
   8   5  11    4.70    1.90
   9   5  11    5.00    1.20
  10   5  11    8.00    1.20
  11   5  11    7.10    1.60
 -11   6  11    3.00    1.40
 -10   6  11    3.40    1.20
  -9   6  11    9.70    1.40
  -8   6  11   49.80    2.10
  -7   6  11   11.80    1.20
  -6   6  11    7.70    1.60
  -5   6  11    5.40    1.80
  -4   6  11    3.60    0.80
  -3   6  11  189.48    4.40
  -2   6  11   45.20    2.60
  -1   6  11  344.37    8.70
   0   6  11    9.70    0.90
   1   6  11  289.97   12.90
   2   6  11   62.39    2.80
   3   6  11  196.18    4.10
   4   6  11   81.09    2.30
   5   6  11   81.89    2.90
   6   6  11    2.70    1.10
   7   6  11   14.20    1.70
   8   6  11    3.10    1.50
   9   6  11   12.20    1.60
  10   6  11    2.70    1.30
 -11   7  11    7.70    1.40
 -10   7  11    7.40    1.40
  -9   7  11    5.90    1.40
  -8   7  11   58.39    2.50
  -7   7  11    4.00    1.50
  -6   7  11   33.10    2.90
  -5   7  11   37.20    2.20
  -4   7  11   47.80    2.00
  -3   7  11   27.00    1.90
  -2   7  11   25.30    1.60
  -1   7  11   12.20    1.10
   0   7  11    5.60    1.00
   1   7  11    0.40    0.30
   2   7  11   43.70    1.80
   3   7  11   25.00    1.70
   4   7  11    1.80    1.00
   5   7  11    2.70    1.50
   6   7  11   70.69    3.10
   7   7  11   21.40    2.40
   8   7  11    8.70    2.30
   9   7  11   13.30    1.50
  10   7  11   25.20    2.50
 -10   8  11    0.00    2.40
  -9   8  11    1.80    1.20
  -8   8  11   70.19    3.00
  -7   8  11    6.20    2.40
  -6   8  11   16.80    1.70
  -5   8  11    0.10    1.40
  -4   8  11    0.80    3.50
  -3   8  11  234.18    5.90
  -2   8  11    1.30    1.10
  -1   8  11    2.00    1.80
   0   8  11   46.60    2.80
   1   8  11    2.50    1.20
   2   8  11    9.90    1.60
   3   8  11  125.59    4.50
   4   8  11    9.50    1.30
   5   8  11   28.80    2.30
   6   8  11   34.90    3.00
   7   8  11   32.40    2.60
   8   8  11   12.60    2.00
   9   8  11    1.70    2.80
 -10   9  11    3.50    1.40
  -9   9  11   43.60    3.40
  -8   9  11   18.10    2.10
  -7   9  11    3.30    1.80
  -6   9  11    2.60    2.70
  -5   9  11   18.30    2.10
  -4   9  11    2.80    2.30
  -3   9  11   37.80    1.90
  -2   9  11   14.80    1.90
  -1   9  11   11.60    1.70
   0   9  11    6.90    1.50
   1   9  11   18.70    1.70
   2   9  11   23.40    1.90
   3   9  11    2.60    1.30
   4   9  11   10.00    1.30
   5   9  11   12.90    2.40
   6   9  11   11.50    1.80
   7   9  11   45.70    2.60
   8   9  11    3.20    2.20
   9   9  11   15.40    4.40
  -9  10  11    2.20    1.30
  -8  10  11   37.80    3.00
  -7  10  11    0.00    1.90
  -6  10  11   68.09    3.60
  -5  10  11   44.20    5.00
  -4  10  11   11.60    1.60
  -3  10  11   73.89    2.70
  -2  10  11    1.60    1.20
  -1  10  11    8.30    2.10
   0  10  11   10.90    1.40
   1  10  11   47.60    2.30
   2  10  11   15.40    1.70
   3  10  11   36.70    2.20
   4  10  11   18.50    2.00
   5  10  11   49.30    4.20
   6  10  11   23.80    2.30
   7  10  11   22.00    2.20
   8  10  11    0.00    1.90
  -8  11  11    9.80    2.00
  -7  11  11   19.50    2.20
  -6  11  11   12.10    2.10
  -5  11  11    3.10    1.50
  -4  11  11    3.80    1.10
  -3  11  11    3.20    1.10
  -2  11  11    8.00    2.20
  -1  11  11    9.20    2.30
   0  11  11    4.90    1.30
   1  11  11   42.90    2.50
   2  11  11    3.70    1.20
   3  11  11   13.20    1.50
   4  11  11   28.50    2.60
   5  11  11   12.90    2.50
   6  11  11    0.00    1.90
   7  11  11   37.50    2.90
  -7  12  11   16.00    2.50
  -6  12  11   28.60    3.10
  -5  12  11   10.50    2.80
  -4  12  11   10.80    1.80
  -3  12  11   16.60    3.40
  -2  12  11   11.40    2.20
  -1  12  11    0.00    6.20
   0  12  11   26.70    3.90
   1  12  11   65.89    6.20
   2  12  11    1.10    1.30
   3  12  11    9.10    1.80
   4  12  11   27.10    4.00
   5  12  11  106.59    5.50
   6  12  11   33.40    2.60
  -5  13  11   14.20    2.10
  -4  13  11   15.40    2.00
  -3  13  11   20.00    5.60
  -2  13  11    9.50    2.60
  -1  13  11   37.40    3.20
   0  13  11    5.70    2.80
   1  13  11   33.10    4.20
   2  13  11   47.50    3.60
   3  13  11   24.70    5.30
   4  13  11   12.80    2.20
  -2  14  11   28.70    2.60
  -1  14  11   35.40    2.90
   0  14  11   54.19    3.50
   1  14  11   19.30    3.00
  -3 -14  12   10.60    2.40
  -2 -14  12    0.00    1.80
  -1 -14  12   15.80    4.30
   0 -14  12  191.78    7.30
   1 -14  12    0.00    3.20
   2 -14  12   15.30    3.00
  -5 -13  12    0.00    2.80
  -4 -13  12   58.69    4.90
  -3 -13  12   16.00    9.00
  -2 -13  12   71.39    6.50
  -1 -13  12   10.10    3.60
   0 -13  12    6.70    2.50
   1 -13  12    8.10    2.40
   2 -13  12    0.00    3.70
   4 -13  12   31.20    4.10
   5 -13  12   43.00    3.10
  -7 -12  12   12.30    3.20
  -6 -12  12    1.80    3.10
  -5 -12  12    6.20    2.90
  -4 -12  12    9.10    2.80
  -3 -12  12   40.70    2.80
  -2 -12  12    6.70    3.00
  -1 -12  12   51.79    7.30
   0 -12  12  120.99    6.70
   1 -12  12  252.17    9.60
   2 -12  12    5.20    2.10
   3 -12  12   19.60    4.20
   4 -12  12    5.20    2.30
   5 -12  12   31.60    4.90
   6 -12  12   16.40    3.80
  -8 -11  12   24.80    3.50
  -7 -11  12   23.50    4.10
  -6 -11  12    0.00    1.70
  -5 -11  12    2.10    1.90
  -4 -11  12    9.90    2.40
  -3 -11  12   35.60    2.50
  -2 -11  12    4.80    1.40
  -1 -11  12    2.80    2.10
   0 -11  12    6.10    1.20
   1 -11  12   20.20    2.10
   2 -11  12    9.80    2.00
   3 -11  12    5.40    2.00
   4 -11  12   24.50    3.00
   5 -11  12   27.00    3.80
   6 -11  12    0.00    3.00
   7 -11  12   19.00    3.10
  -9 -10  12    7.00    2.20
  -8 -10  12   20.80    6.20
  -7 -10  12    0.00    1.60
  -6 -10  12   16.00    2.30
  -5 -10  12   33.00    3.40
  -4 -10  12   16.30    1.50
  -3 -10  12   16.30    1.80
  -2 -10  12    0.00    1.60
  -1 -10  12    2.30    2.00
   0 -10  12   13.20    1.50
   1 -10  12   23.10    1.60
   2 -10  12    6.70    1.00
   3 -10  12    8.10    1.70
   4 -10  12    9.00    2.30
   5 -10  12   24.70    3.20
   6 -10  12   20.80    2.70
   7 -10  12    9.00    3.10
   8 -10  12    4.40    2.60
 -10  -9  12   30.60    2.90
  -9  -9  12    9.10    4.80
  -8  -9  12    9.40    3.20
  -7  -9  12    0.00    2.30
  -6  -9  12   44.20    2.40
  -5  -9  12    8.50    2.50
  -4  -9  12   38.90    2.20
  -3  -9  12    8.10    1.80
  -2  -9  12    0.80    1.50
  -1  -9  12   30.40    2.10
   0  -9  12    2.80    1.10
   1  -9  12   12.80    1.70
   2  -9  12   28.40    2.20
   3  -9  12    8.30    1.50
   4  -9  12    2.50    2.70
   5  -9  12   44.20    3.00
   6  -9  12   13.50    1.80
   7  -9  12    9.20    3.50
   8  -9  12    0.00    2.50
   9  -9  12    2.10    1.40
 -10  -8  12   58.39    3.80
  -9  -8  12    5.50    3.90
  -8  -8  12    5.10    2.50
  -7  -8  12    0.00    1.90
  -6  -8  12   13.50    1.60
  -5  -8  12    5.50    1.80
  -4  -8  12   32.30    2.20
  -3  -8  12    0.00    3.20
  -2  -8  12   24.90    1.70
  -1  -8  12    0.80    1.30
   0  -8  12   29.30    1.90
   1  -8  12    2.10    1.50
   2  -8  12   11.30    1.70
   3  -8  12   22.40    2.40
   4  -8  12    0.60    1.70
   5  -8  12    0.00    2.10
   6  -8  12   20.60    2.40
   7  -8  12    6.40    2.30
   8  -8  12   12.00    2.80
   9  -8  12   12.10    1.80
 -11  -7  12    5.00    1.60
 -10  -7  12   12.00    2.60
  -9  -7  12    3.50    1.50
  -8  -7  12    6.80    1.70
  -7  -7  12    0.00    1.80
  -6  -7  12   73.09    3.20
  -5  -7  12    5.60    1.40
  -4  -7  12   70.09    2.50
  -3  -7  12    1.00    1.40
  -2  -7  12   17.60    2.40
  -1  -7  12    0.50    0.50
   0  -7  12    1.70    0.70
   1  -7  12   18.40    1.80
   2  -7  12    2.40    1.40
   3  -7  12    1.70    1.60
   4  -7  12    6.60    1.40
   5  -7  12   37.90    2.40
   6  -7  12   15.60    2.20
   7  -7  12    8.50    2.00
   8  -7  12    5.40    1.70
   9  -7  12    3.40    1.50
  10  -7  12    4.30    1.90
 -11  -6  12    5.00    1.90
 -10  -6  12   22.90    1.80
  -9  -6  12    0.50    1.00
  -8  -6  12    6.50    1.50
  -7  -6  12   19.50    2.20
  -6  -6  12   97.59    3.70
  -5  -6  12   27.40    2.10
  -4  -6  12    9.70    1.20
  -3  -6  12   65.49    3.90
  -2  -6  12   85.29    4.40
  -1  -6  12    0.00    4.00
   0  -6  12    3.90    0.40
   1  -6  12   96.99    3.00
   2  -6  12    8.30    1.80
   3  -6  12  107.69    4.00
   4  -6  12   16.30    1.70
   5  -6  12   41.50    3.00
   6  -6  12    2.30    1.60
   7  -6  12   55.29    2.70
   8  -6  12   22.60    3.40
   9  -6  12   43.60    2.50
  10  -6  12    0.60    1.20
 -11  -5  12    2.40    1.70
 -10  -5  12    5.70    1.50
  -9  -5  12    9.60    1.30
  -8  -5  12   59.89    3.50
  -7  -5  12    1.30    1.20
  -6  -5  12   48.70    2.50
  -5  -5  12   10.60    4.80
  -4  -5  12  108.49    3.60
  -3  -5  12   72.99    2.50
  -2  -5  12   50.49    4.30
  -1  -5  12    6.20    1.00
   0  -5  12   66.19    2.30
   1  -5  12   27.40    1.40
   2  -5  12    0.00    5.50
   3  -5  12   65.59    2.60
   4  -5  12    3.40    0.60
   5  -5  12   52.19    4.40
   6  -5  12   15.80    2.10
   7  -5  12   13.90    1.80
   8  -5  12   61.59    3.80
   9  -5  12    3.60    1.20
  10  -5  12   49.30    2.60
  11  -5  12   22.40    2.20
 -12  -4  12    6.40    1.70
 -11  -4  12    3.80    1.70
 -10  -4  12   28.60    2.10
  -9  -4  12    7.90    1.40
  -8  -4  12   78.59    2.60
  -7  -4  12    2.40    1.30
  -6  -4  12   47.70    2.40
  -5  -4  12   32.80    3.60
  -4  -4  12   12.50    1.00
  -3  -4  12   40.90    3.30
  -2  -4  12    3.50    1.20
  -1  -4  12   33.40    1.20
   0  -4  12   29.90    1.50
   1  -4  12   14.20    2.10
   2  -4  12   83.49    3.00
   3  -4  12   23.90    1.30
   4  -4  12   11.30    1.00
   5  -4  12    1.00    1.40
   6  -4  12    5.70    1.80
   7  -4  12   78.19    4.30
   8  -4  12   12.90    2.50
   9  -4  12   34.80    2.10
  10  -4  12   17.20    2.00
  11  -4  12   24.30    2.50
 -12  -3  12    4.30    2.00
 -11  -3  12   34.60    2.20
 -10  -3  12   46.90    1.90
  -9  -3  12   50.79    2.30
  -8  -3  12    9.00    1.10
  -7  -3  12    4.60    1.50
  -6  -3  12    1.50    1.80
  -5  -3  12    8.10    1.60
  -4  -3  12   37.20    3.10
  -3  -3  12    1.70    1.60
  -2  -3  12    9.30    0.90
  -1  -3  12   17.30    1.30
   0  -3  12   17.20    1.20
   1  -3  12   15.90    1.50
   2  -3  12   70.19    2.40
   3  -3  12   10.10    1.50
   4  -3  12    5.20    0.90
   5  -3  12    5.70    1.20
   6  -3  12   22.60    1.90
   7  -3  12  122.29    6.90
   8  -3  12   24.70    2.50
   9  -3  12   10.30    2.00
  10  -3  12   37.40    3.10
  11  -3  12    7.40    1.70
 -12  -2  12    5.60    1.40
 -11  -2  12   32.00    2.40
 -10  -2  12   41.60    2.70
  -9  -2  12   28.90    1.60
  -8  -2  12    7.30    1.20
  -7  -2  12   74.69    4.80
  -6  -2  12  136.99    5.10
  -5  -2  12   13.40    2.60
  -4  -2  12  154.98    5.90
  -3  -2  12   55.19    2.00
  -2  -2  12  170.38    4.00
  -1  -2  12   23.10    3.20
   0  -2  12    5.90    0.70
   1  -2  12   62.39    2.50
   2  -2  12   24.90    3.50
   3  -2  12   14.50    2.90
   4  -2  12  119.49    3.20
   5  -2  12   61.69    3.50
   6  -2  12    0.60    1.50
   7  -2  12   29.50    1.50
   8  -2  12   21.40    2.00
   9  -2  12   14.30    2.00
  10  -2  12    5.50    2.20
  11  -2  12    2.90    1.70
 -12  -1  12   10.70    1.70
 -11  -1  12   35.60    2.60
 -10  -1  12   21.20    2.00
  -9  -1  12    0.90    0.90
  -8  -1  12    9.50    1.30
  -7  -1  12   47.20    2.40
  -6  -1  12   17.30    1.60
  -5  -1  12   10.10    2.70
  -4  -1  12   86.09    3.90
  -3  -1  12   43.00    1.60
  -2  -1  12   59.89    3.40
  -1  -1  12   93.59    2.40
   0  -1  12   59.99    2.10
   1  -1  12    0.00    1.80
   2  -1  12   13.00    3.70
   3  -1  12  107.59    2.60
   4  -1  12   80.09    2.30
   5  -1  12   56.39    2.40
   6  -1  12    2.10    0.40
   7  -1  12    0.20    1.30
   8  -1  12   10.60    1.90
   9  -1  12    4.90    2.40
  10  -1  12    3.00    2.70
  11  -1  12    2.10    1.50
 -12   0  12    7.10    2.10
 -11   0  12    3.50    2.10
 -10   0  12    6.20    1.20
  -9   0  12    8.90    1.30
  -8   0  12   76.59    3.80
  -7   0  12   22.10    1.80
  -6   0  12   23.50    1.50
  -5   0  12    9.30    4.20
  -4   0  12  102.29    2.70
  -3   0  12   38.40    1.50
  -2   0  12   84.79    2.70
  -1   0  12    0.00    1.00
   0   0  12   33.80    1.70
   1   0  12   23.90    1.10
   2   0  12   37.00    1.50
   3   0  12   21.00    1.00
   4   0  12   76.59    2.20
   5   0  12  124.29    4.20
   6   0  12    3.00    1.00
   7   0  12   77.79    3.70
   8   0  12    4.50    3.30
   9   0  12    4.20    2.10
  10   0  12    4.50    1.20
  11   0  12   10.80    4.50
 -12   1  12    6.20    2.60
 -11   1  12    9.20    1.50
 -10   1  12   26.60    2.10
  -9   1  12   10.60    1.70
  -8   1  12   13.30    1.90
  -7   1  12   16.30    2.10
  -6   1  12   24.20    1.70
  -5   1  12   13.00    2.00
  -4   1  12   28.30    1.30
  -3   1  12   93.79    2.50
  -2   1  12  206.48    6.80
  -1   1  12   24.70    1.50
   0   1  12    9.20    1.20
   1   1  12   12.60    1.60
   2   1  12  178.48    7.40
   3   1  12    7.80    1.00
   4   1  12  118.39    3.70
   5   1  12   39.10    2.20
   6   1  12   18.50    1.50
   7   1  12   11.80    1.70
   8   1  12   37.70    2.90
   9   1  12    1.70    1.00
  10   1  12    0.90    1.40
  11   1  12    4.70    2.40
 -12   2  12    8.30    1.90
 -11   2  12    6.20    1.30
 -10   2  12   30.90    2.10
  -9   2  12    0.50    1.60
  -8   2  12    5.00    1.90
  -7   2  12    0.00    2.90
  -6   2  12   24.30    3.10
  -5   2  12   93.59    3.80
  -4   2  12   10.50    1.00
  -3   2  12   61.69    2.90
  -2   2  12    8.30    2.00
  -1   2  12    7.80    2.70
   0   2  12    2.00    0.80
   1   2  12   20.90    3.00
   2   2  12  178.38    5.30
   3   2  12   58.29    1.90
   4   2  12   37.90    3.40
   5   2  12    5.30    1.90
   6   2  12    9.10    1.50
   7   2  12    9.60    1.50
   8   2  12    6.40    1.40
   9   2  12   36.80    1.80
  10   2  12   10.40    2.20
  11   2  12    1.50    1.60
 -12   3  12   10.90    1.60
 -11   3  12    2.40    1.20
 -10   3  12   29.60    2.40
  -9   3  12   14.70    2.10
  -8   3  12   11.90    1.40
  -7   3  12   89.89    3.40
  -6   3  12    7.00    1.10
  -5   3  12    0.90    0.70
  -4   3  12   30.70    1.50
  -3   3  12   12.10    1.30
  -2   3  12   81.69    3.40
  -1   3  12    0.00    1.90
   0   3  12   39.40    2.00
   1   3  12   48.60    2.20
   2   3  12   76.39    2.70
   3   3  12   72.79    3.20
   4   3  12   31.60    2.00
   5   3  12    7.80    1.00
   6   3  12   26.40    1.60
   7   3  12   11.90    1.90
   8   3  12   60.29    2.80
   9   3  12   11.10    2.00
  10   3  12    7.10    1.50
  11   3  12    4.30    1.60
 -12   4  12   17.60    1.80
 -11   4  12    4.20    1.30
 -10   4  12   36.90    2.50
  -9   4  12    4.50    1.10
  -8   4  12   42.90    2.30
  -7   4  12    2.20    1.20
  -6   4  12  109.89    4.20
  -5   4  12    1.10    0.90
  -4   4  12   47.50    1.70
  -3   4  12   58.19    1.70
  -2   4  12   16.20    2.20
  -1   4  12   89.69    3.10
   0   4  12   10.90    1.00
   1   4  12   12.80    1.50
   2   4  12    2.20    1.00
   3   4  12   26.50    1.40
   4   4  12   10.20    1.10
   5   4  12   20.80    1.40
   6   4  12   22.70    1.80
   7   4  12    6.70    1.30
   8   4  12   59.19    2.80
   9   4  12   39.60    2.10
  10   4  12   20.30    2.10
  11   4  12   17.10    2.30
 -11   5  12   10.00    1.80
 -10   5  12   14.10    1.60
  -9   5  12    3.50    1.20
  -8   5  12   20.00    2.10
  -7   5  12   19.60    1.40
  -6   5  12    6.90    1.40
  -5   5  12   84.89    3.60
  -4   5  12    1.90    0.80
  -3   5  12  185.38    4.30
  -2   5  12   43.90    3.20
  -1   5  12   94.39    3.80
   0   5  12    0.80    0.50
   1   5  12  171.38    3.90
   2   5  12   43.90    3.20
   3   5  12   18.80    1.30
   4   5  12   75.49    2.20
   5   5  12    5.70    1.40
   6   5  12    5.90    1.10
   7   5  12    5.50    1.40
   8   5  12   52.19    2.90
   9   5  12   16.30    1.60
  10   5  12    7.60    1.20
 -11   6  12    2.30    1.70
 -10   6  12    8.00    1.30
  -9   6  12    2.00    1.30
  -8   6  12    9.80    1.50
  -7   6  12    7.90    1.50
  -6   6  12   10.30    1.50
  -5   6  12    5.30    3.30
  -4   6  12   58.39    1.80
  -3   6  12  272.87    5.60
  -2   6  12  113.59    4.10
  -1   6  12   57.29    1.90
   0   6  12   47.90    1.70
   1   6  12    5.80    2.70
   2   6  12  103.79    3.70
   3   6  12   35.80    1.40
   4   6  12   66.19    2.50
   5   6  12   92.39    3.70
   6   6  12   39.80    1.90
   7   6  12    2.50    1.80
   8   6  12    6.40    2.40
   9   6  12    7.20    1.30
  10   6  12   15.10    1.70
 -10   7  12   13.60    1.60
  -9   7  12    3.10    1.20
  -8   7  12   37.20    2.20
  -7   7  12    0.30    2.10
  -6   7  12    8.70    2.80
  -5   7  12    2.10    1.90
  -4   7  12    8.20    1.20
  -3   7  12    2.40    1.00
  -2   7  12   11.00    1.20
  -1   7  12   15.50    1.90
   0   7  12    0.60    0.70
   1   7  12   20.30    1.80
   2   7  12    1.70    0.90
   3   7  12    6.60    1.40
   4   7  12   56.19    2.80
   5   7  12   19.20    2.20
   6   7  12   30.80    2.90
   7   7  12    9.10    3.20
   8   7  12    3.30    1.40
   9   7  12    4.50    1.30
 -10   8  12    6.50    2.20
  -9   8  12    9.20    1.70
  -8   8  12    6.50    1.50
  -7   8  12   11.20    2.40
  -6   8  12   12.20    2.60
  -5   8  12    9.80    1.70
  -4   8  12    7.70    1.90
  -3   8  12   12.20    1.80
  -2   8  12   12.30    1.70
  -1   8  12    0.60    1.80
   0   8  12    7.80    1.50
   1   8  12   10.60    1.50
   2   8  12    2.20    1.40
   3   8  12    6.00    3.00
   4   8  12    8.00    1.30
   5   8  12   45.70    2.50
   6   8  12   53.99    2.60
   7   8  12    7.00    2.30
   8   8  12    9.20    2.10
   9   8  12    1.70    2.80
  -9   9  12    8.80    1.80
  -8   9  12   19.40    2.10
  -7   9  12    2.60    2.50
  -6   9  12    3.50    1.70
  -5   9  12    5.90    2.50
  -4   9  12    7.00    3.20
  -3   9  12    2.70    0.90
  -2   9  12    9.00    2.00
  -1   9  12  107.89    3.50
   0   9  12    7.50    1.30
   1   9  12    6.80    2.90
   2   9  12   58.69    2.70
   3   9  12   10.60    1.50
   4   9  12    2.60    1.00
   5   9  12    7.60    2.00
   6   9  12    3.10    2.70
   7   9  12    5.30    2.10
   8   9  12   16.10    2.40
  -8  10  12    3.40    1.90
  -7  10  12   13.50    2.30
  -6  10  12    0.00    2.30
  -5  10  12   89.09    5.00
  -4  10  12   37.20    2.30
  -3  10  12    4.60    1.00
  -2  10  12   22.10    2.10
  -1  10  12    2.40    1.40
   0  10  12   26.10    2.50
   1  10  12    1.20    1.50
   2  10  12    1.20    1.40
   3  10  12    5.00    1.10
   4  10  12   12.10    1.70
   5  10  12    6.10    4.30
   6  10  12   47.10    2.70
   7  10  12   10.10    2.40
  -7  11  12    6.40    2.50
  -6  11  12   20.40    2.30
  -5  11  12   55.59    3.10
  -4  11  12   31.10    2.40
  -3  11  12    3.00    1.20
  -2  11  12   12.80    2.30
  -1  11  12   11.00    2.70
   0  11  12    3.90    1.80
   1  11  12    0.00    2.50
   2  11  12    5.80    1.70
   3  11  12    5.40    1.30
   4  11  12    1.30    1.40
   5  11  12   17.10    2.40
   6  11  12   55.39    3.30
  -6  12  12    0.00    3.00
  -5  12  12   83.39    5.90
  -4  12  12    2.60    1.30
  -3  12  12    7.60    2.10
  -2  12  12    7.60    2.60
  -1  12  12   32.60    4.80
   0  12  12   36.30    6.70
   1  12  12   55.89    4.90
   2  12  12    2.60    4.20
   3  12  12   13.60    1.60
   4  12  12    0.00    3.20
   5  12  12    1.10    1.40
  -4  13  12   18.60    1.90
  -3  13  12    7.80    2.70
  -2  13  12   66.79    4.20
  -1  13  12   33.10    3.00
   0  13  12   11.20    2.50
   1  13  12   10.50    3.10
   2  13  12   13.10    3.70
  -4 -13  13    4.30    2.50
  -3 -13  13    9.10    7.90
  -2 -13  13    0.00    8.00
  -1 -13  13   45.50    4.90
   0 -13  13   11.90    2.90
   1 -13  13    0.00    3.40
   2 -13  13   29.50    4.60
   3 -13  13   62.69    3.80
  -6 -12  13    1.80    3.30
  -5 -12  13    0.70    4.10
  -4 -12  13   11.60    4.10
  -3 -12  13   15.30    2.70
  -2 -12  13    0.00    7.80
  -1 -12  13   62.99    6.50
   0 -12  13  199.08   10.50
   1 -12  13  124.49    7.90
   2 -12  13    7.30    4.00
   3 -12  13   42.10    4.50
   4 -12  13   15.30    3.30
   5 -12  13   11.50    1.90
  -7 -11  13   10.40    3.00
  -6 -11  13   12.10    2.40
  -5 -11  13   19.60    3.30
  -4 -11  13   56.29    3.80
  -3 -11  13    5.80    1.40
  -2 -11  13   23.10    2.40
  -1 -11  13   61.09    2.60
   0 -11  13    6.00    1.00
   1 -11  13    6.90    3.30
   2 -11  13   30.80    3.50
   3 -11  13   15.60    2.50
   4 -11  13    3.00    1.90
   5 -11  13   23.30    2.90
   6 -11  13   50.29    4.00
  -8 -10  13   20.90    2.90
  -7 -10  13    0.00    2.20
  -6 -10  13    0.00    2.50
  -5 -10  13   16.50    3.90
  -4 -10  13   12.90    2.50
  -3 -10  13   18.20    1.50
  -2 -10  13   17.00    1.90
  -1 -10  13    8.80    1.60
   0 -10  13   54.89    3.80
   1 -10  13    6.20    1.30
   2 -10  13    4.20    1.70
   3 -10  13    5.60    1.50
   4 -10  13   30.00    3.10
   5 -10  13    0.00    3.90
   6 -10  13   12.90    3.20
   7 -10  13    2.80    2.90
  -9  -9  13   16.30    4.70
  -8  -9  13    2.50    2.80
  -7  -9  13    1.50    2.20
  -6  -9  13    0.00    2.00
  -5  -9  13    0.00    2.60
  -4  -9  13   38.20    2.00
  -3  -9  13    8.80    1.30
  -2  -9  13    6.90    1.80
  -1  -9  13   32.50    2.60
   0  -9  13    2.40    0.80
   1  -9  13    0.00    3.30
   2  -9  13    5.90    1.90
   3  -9  13    2.00    1.30
   4  -9  13   29.10    3.60
   5  -9  13    2.90    1.70
   6  -9  13    0.00    3.20
   7  -9  13    0.30    3.10
   8  -9  13   28.70    3.20
 -10  -8  13    3.90    1.80
  -9  -8  13   12.60    5.80
  -8  -8  13   13.90    1.90
  -7  -8  13    0.00    2.30
  -6  -8  13   10.00    2.50
  -5  -8  13   16.00    2.10
  -4  -8  13    6.60    1.30
  -3  -8  13    2.40    1.50
  -2  -8  13    9.20    1.10
  -1  -8  13    0.00    2.20
   0  -8  13   18.60    1.40
   1  -8  13   24.10    2.20
   2  -8  13    2.60    1.40
   3  -8  13   78.59    3.80
   4  -8  13    7.80    2.60
   5  -8  13   45.80    3.30
   6  -8  13   23.00    3.00
   7  -8  13    5.40    6.80
   8  -8  13    9.50    3.00
   9  -8  13    2.60    1.40
 -10  -7  13  108.39    4.90
  -9  -7  13    8.30    1.60
  -8  -7  13    0.60    3.50
  -7  -7  13    3.90    2.80
  -6  -7  13    9.50    2.00
  -5  -7  13    5.00    2.20
  -4  -7  13   36.20    2.80
  -3  -7  13    8.50    1.30
  -2  -7  13    0.00    1.40
  -1  -7  13    7.70    1.80
   0  -7  13    1.30    0.90
   1  -7  13    8.00    1.90
   2  -7  13   27.50    2.20
   3  -7  13    1.60    1.30
   4  -7  13   38.30    3.00
   5  -7  13   23.60    2.90
   6  -7  13   10.80    2.60
   7  -7  13   34.10    3.20
   8  -7  13   13.90    1.80
   9  -7  13    8.20    2.00
 -11  -6  13   16.60    2.00
 -10  -6  13    3.20    2.10
  -9  -6  13   50.29    2.60
  -8  -6  13    1.80    3.30
  -7  -6  13   44.20    3.50
  -6  -6  13    3.30    1.40
  -5  -6  13    0.00    1.90
  -4  -6  13   61.99    2.50
  -3  -6  13    6.70    0.80
  -2  -6  13   15.40    4.30
  -1  -6  13   20.20    5.00
   0  -6  13   36.10    1.50
   1  -6  13   98.99    3.30
   2  -6  13    8.80    3.30
   3  -6  13   29.80    1.40
   4  -6  13   25.50    2.20
   5  -6  13   45.40    3.50
   6  -6  13    4.40    1.80
   7  -6  13    3.10    1.70
   8  -6  13    3.80    2.00
   9  -6  13   34.20    3.00
  10  -6  13   17.80    2.50
 -11  -5  13   26.60    2.20
 -10  -5  13    9.10    1.30
  -9  -5  13    0.80    1.10
  -8  -5  13    9.60    1.80
  -7  -5  13   36.70    1.90
  -6  -5  13   80.59    3.50
  -5  -5  13    0.90    2.70
  -4  -5  13   74.49    2.40
  -3  -5  13   58.99    1.90
  -2  -5  13   24.00    2.60
  -1  -5  13    7.90    1.00
   0  -5  13    2.00    0.60
   1  -5  13   35.60    1.90
   2  -5  13   60.29    3.80
   3  -5  13   71.89    2.30
   4  -5  13  120.39    3.00
   5  -5  13    0.00    2.60
   6  -5  13   44.20    2.20
   7  -5  13   23.70    1.80
   8  -5  13    2.80    2.60
   9  -5  13   28.10    2.50
  10  -5  13    8.20    1.60
 -11  -4  13   11.90    1.70
 -10  -4  13   10.90    1.30
  -9  -4  13    5.10    1.30
  -8  -4  13    3.00    1.10
  -7  -4  13   72.99    3.40
  -6  -4  13   78.69    3.90
  -5  -4  13    6.80    1.40
  -4  -4  13   25.60    1.00
  -3  -4  13   47.70    1.60
  -2  -4  13    0.20    1.00
  -1  -4  13  184.88    3.90
   0  -4  13    1.20    0.70
   1  -4  13   13.10    4.20
   2  -4  13   34.20    2.40
   3  -4  13   18.30    1.20
   4  -4  13    7.90    1.30
   5  -4  13  101.09    3.20
   6  -4  13    1.80    1.40
   7  -4  13    5.40    1.90
   8  -4  13  136.69    6.50
   9  -4  13    9.40    1.50
  10  -4  13   38.00    3.00
 -11  -3  13    7.60    1.40
 -10  -3  13    5.10    1.30
  -9  -3  13    4.00    1.40
  -8  -3  13   46.00    2.60
  -7  -3  13  126.89    5.60
  -6  -3  13   38.10    3.40
  -5  -3  13   17.90    1.80
  -4  -3  13   32.10    2.00
  -3  -3  13   25.50    3.70
  -2  -3  13    3.70    1.10
  -1  -3  13   11.70    1.20
   0  -3  13   13.80    1.30
   1  -3  13   20.40    1.40
   2  -3  13    9.80    1.20
   3  -3  13    2.70    1.20
   4  -3  13   28.60    1.40
   5  -3  13  166.08    6.40
   6  -3  13   31.90    3.10
   7  -3  13   18.60    2.90
   8  -3  13   45.80    3.20
   9  -3  13   22.30    3.20
  10  -3  13    8.90    2.10
 -12  -2  13    2.30    1.60
 -11  -2  13    3.00    1.60
 -10  -2  13   11.90    1.70
  -9  -2  13   70.59    2.90
  -8  -2  13    1.20    1.00
  -7  -2  13    6.20    2.00
  -6  -2  13   30.10    1.40
  -5  -2  13   35.90    2.30
  -4  -2  13    7.60    1.70
  -3  -2  13   38.20    1.60
  -2  -2  13   91.49    3.10
  -1  -2  13  250.97    8.20
   0  -2  13    2.00    0.50
   1  -2  13   66.49    5.70
   2  -2  13   50.09    2.90
   3  -2  13    4.10    1.30
   4  -2  13    1.50    0.80
   5  -2  13   37.50    2.40
   6  -2  13    2.00    1.40
   7  -2  13    4.60    1.30
   8  -2  13   17.20    2.00
   9  -2  13    4.00    3.10
  10  -2  13    3.40    1.70
 -12  -1  13   51.29    3.60
 -11  -1  13   20.30    2.10
 -10  -1  13    3.20    2.00
  -9  -1  13   17.30    1.50
  -8  -1  13   11.80    1.30
  -7  -1  13   10.70    1.60
  -6  -1  13    7.60    1.20
  -5  -1  13    0.00    1.90
  -4  -1  13    3.10    0.90
  -3  -1  13  224.78    4.60
  -2  -1  13   17.50    1.60
  -1  -1  13   24.20    1.10
   0  -1  13   29.70    1.60
   1  -1  13    1.90    1.00
   2  -1  13   15.50    1.50
   3  -1  13   31.30    1.40
   4  -1  13   74.29    2.30
   5  -1  13   43.10    2.30
   6  -1  13    0.00    1.50
   7  -1  13    6.20    2.00
   8  -1  13    2.60    2.10
   9  -1  13    7.40    2.20
  10  -1  13    3.60    2.20
  11  -1  13   14.80    1.80
 -12   0  13    6.80    2.90
 -11   0  13    0.80    2.90
 -10   0  13   46.90    2.50
  -9   0  13   36.00    2.20
  -8   0  13   58.49    3.50
  -7   0  13   20.50    3.20
  -6   0  13    2.00    1.00
  -5   0  13   17.10    3.80
  -4   0  13   46.80    1.70
  -3   0  13  128.99    3.00
  -2   0  13   67.89    2.10
  -1   0  13    0.00    0.80
   0   0  13   18.90    1.10
   1   0  13    2.30    0.70
   2   0  13    2.50    1.20
   3   0  13   15.60    1.00
   4   0  13   84.29    3.00
   5   0  13    3.30    0.60
   6   0  13    0.00    2.20
   7   0  13    0.00    1.10
   8   0  13   13.90    2.30
  10   0  13    5.30    1.50
  11   0  13    7.30    1.70
 -12   1  13   51.19    3.20
 -11   1  13    8.20    1.70
 -10   1  13    3.50    1.20
  -9   1  13    5.80    2.00
  -8   1  13   55.49    3.00
  -7   1  13   19.60    1.50
  -6   1  13   12.30    1.50
  -5   1  13   15.40    1.90
  -4   1  13    0.70    0.60
  -3   1  13  167.88    4.40
  -2   1  13    6.40    1.40
  -1   1  13   45.60    1.50
   0   1  13   22.70    1.60
   1   1  13    0.00    1.20
   2   1  13   11.30    2.00
   3   1  13   18.70    1.00
   4   1  13   25.90    2.40
   5   1  13   18.00    1.30
   6   1  13    0.30    1.50
   7   1  13   53.89    2.40
   8   1  13    0.80    1.80
   9   1  13   29.20    1.90
  10   1  13   21.00    2.60
 -11   2  13    1.30    1.30
 -10   2  13    1.70    1.20
  -9   2  13    7.50    2.00
  -8   2  13   32.00    2.80
  -7   2  13    0.00    1.60
  -6   2  13   18.00    1.50
  -5   2  13   11.40    1.50
  -4   2  13    6.70    0.90
  -3   2  13   32.90    1.40
  -2   2  13   30.40    2.20
  -1   2  13   96.69    4.20
   0   2  13    7.10    0.90
   1   2  13    0.00    4.70
   2   2  13   22.70    2.40
   3   2  13   44.30    1.90
   4   2  13   14.40    2.80
   5   2  13    0.00    2.20
   6   2  13    1.50    1.50
   7   2  13    5.20    1.70
   8   2  13    4.70    1.50
   9   2  13   81.29    3.10
  10   2  13    4.20    1.70
 -11   3  13    6.00    1.50
 -10   3  13    8.90    1.60
  -9   3  13    3.50    1.30
  -8   3  13   48.90    3.00
  -7   3  13   68.69    4.20
  -6   3  13   41.10    2.80
  -5   3  13    7.90    0.80
  -4   3  13   28.00    1.60
  -3   3  13    4.50    1.30
  -2   3  13   34.10    1.40
  -1   3  13   18.10    1.80
   0   3  13   40.50    2.20
   1   3  13    5.10    1.30
   2   3  13   38.40    1.80
   3   3  13    4.90    1.70
   4   3  13    6.10    1.80
   5   3  13   40.50    2.20
   6   3  13   10.00    1.60
   7   3  13    5.70    1.50
   8   3  13   31.40    2.40
   9   3  13   15.90    1.90
  10   3  13   25.50    2.70
 -11   4  13    8.20    1.60
 -10   4  13   15.90    1.70
  -9   4  13   12.40    1.70
  -8   4  13   82.19    4.90
  -7   4  13    8.60    1.80
  -6   4  13    5.90    1.30
  -5   4  13    1.20    1.00
  -4   4  13   29.80    1.50
  -3   4  13    2.10    0.80
  -2   4  13  113.39    4.60
  -1   4  13   10.10    2.20
   0   4  13   15.00    1.00
   1   4  13   22.80    1.20
   2   4  13   12.80    2.20
   3   4  13   17.30    1.30
   4   4  13   17.80    1.70
   5   4  13   17.70    1.60
   6   4  13    1.90    1.20
   7   4  13   65.59    3.10
   8   4  13   17.80    2.00
   9   4  13    6.90    1.40
  10   4  13   17.10    1.70
 -11   5  13   24.80    2.20
 -10   5  13   27.90    2.30
  -9   5  13    2.10    1.10
  -8   5  13   12.50    2.70
  -7   5  13   13.40    1.70
  -6   5  13    0.60    1.10
  -5   5  13    6.20    1.60
  -4   5  13   24.70    1.70
  -3   5  13  113.09    2.70
  -2   5  13    8.40    3.20
  -1   5  13   15.10    2.00
   0   5  13    6.70    0.80
   1   5  13   48.50    1.60
   2   5  13    3.90    3.70
   3   5  13   10.50    1.10
   4   5  13   13.70    1.30
   5   5  13    6.90    2.10
   6   5  13    3.90    1.30
   7   5  13    0.70    1.70
   8   5  13    3.10    1.70
   9   5  13   13.40    1.80
 -10   6  13    1.70    1.10
  -9   6  13    4.70    1.70
  -8   6  13    9.30    2.00
  -7   6  13    2.30    1.60
  -6   6  13    4.30    2.20
  -5   6  13   95.89    5.60
  -4   6  13   66.49    2.20
  -3   6  13   72.89    2.40
  -2   6  13    9.10    2.30
  -1   6  13   23.90    1.50
   0   6  13    1.50    0.70
   1   6  13    7.90    2.40
   2   6  13   44.80    2.40
   3   6  13   12.70    1.20
   4   6  13   31.80    1.60
   5   6  13    3.30    1.30
   6   6  13   35.90    2.30
   7   6  13    3.80    2.20
   8   6  13   45.60    4.20
   9   6  13   10.30    1.90
 -10   7  13    2.70    1.30
  -9   7  13   24.60    2.00
  -8   7  13    3.80    1.30
  -7   7  13    7.40    2.00
  -6   7  13   46.50    4.60
  -5   7  13   16.50    2.60
  -4   7  13   82.19    3.20
  -3   7  13   22.70    1.90
  -2   7  13    5.10    1.20
  -1   7  13    1.20    1.60
   0   7  13    4.90    1.20
   1   7  13    5.70    1.40
   2   7  13    6.20    1.20
   3   7  13    4.50    1.40
   4   7  13   15.70    1.80
   5   7  13    2.30    2.40
   6   7  13    8.90    2.50
   7   7  13  152.68    6.80
   8   7  13    9.40    2.10
   9   7  13    8.90    1.90
  -9   8  13    1.70    1.30
  -8   8  13   49.99    3.40
  -7   8  13    3.40    2.90
  -6   8  13    0.00    2.70
  -5   8  13    3.50    2.30
  -4   8  13   19.20    5.80
  -3   8  13    5.00    1.30
  -2   8  13    1.30    1.20
  -1   8  13   14.70    2.00
   0   8  13   27.80    2.70
   1   8  13    7.70    1.70
   2   8  13   19.50    2.00
   3   8  13    6.70    2.70
   4   8  13    5.90    1.30
   5   8  13   19.10    3.50
   6   8  13    2.40    2.00
   7   8  13    0.00    2.50
   8   8  13    5.00    2.20
  -8   9  13    0.90    2.30
  -7   9  13   12.40    2.20
  -6   9  13   59.19    3.10
  -5   9  13    1.20    1.80
  -4   9  13   21.60    2.60
  -3   9  13   29.70    2.10
  -2   9  13   32.20    2.80
  -1   9  13   86.49    3.70
   0   9  13    2.60    1.50
   1   9  13   39.80    3.60
   2   9  13    2.80    2.50
   3   9  13    2.20    1.50
   4   9  13    6.60    1.30
   5   9  13   14.70    2.20
   6   9  13    4.00    3.40
   7   9  13   28.80    2.90
  -7  10  13   20.00    2.30
  -6  10  13    0.00    2.50
  -5  10  13  107.69    5.50
  -4  10  13    3.50    1.20
  -3  10  13   13.10    1.70
  -2  10  13    4.90    1.70
  -1  10  13   59.49    3.30
   0  10  13   61.09    4.20
   1  10  13   14.40    3.10
   2  10  13   36.00    2.60
   3  10  13    3.20    1.20
   4  10  13    2.00    1.10
   5  10  13    0.00    2.70
   6  10  13   55.19    2.90
  -6  11  13   21.30    3.30
  -5  11  13    0.00    2.70
  -4  11  13    5.30    1.40
  -3  11  13    1.10    1.10
  -2  11  13    7.80    3.30
  -1  11  13   22.90    2.20
   0  11  13   11.90    2.10
   1  11  13    0.00    2.50
   2  11  13   24.70    3.60
   3  11  13    5.50    1.30
   4  11  13    7.60    1.90
   5  11  13    0.00    2.60
  -4  12  13    0.70    1.20
  -3  12  13    9.30    2.20
  -2  12  13    0.00    3.40
  -1  12  13   13.80    2.50
   0  12  13   15.10    2.30
   1  12  13   18.40    3.20
   2  12  13    8.80    6.40
   3  12  13    1.60    1.20
  -2 -13  14    9.60    1.90
  -1 -13  14   19.30    2.50
   0 -13  14    2.00    1.80
   1 -13  14    8.80    2.90
  -4 -12  14    3.30    2.50
  -3 -12  14    2.90    2.00
  -2 -12  14   24.60    6.70
  -1 -12  14   52.19    4.70
   0 -12  14   28.00    3.90
   1 -12  14   12.10    3.90
   2 -12  14   10.50    3.50
   3 -12  14    5.80    2.80
   4 -12  14   28.00    2.40
  -6 -11  14   28.60    3.30
  -5 -11  14    5.60    2.20
  -4 -11  14    9.40    3.00
  -3 -11  14    1.40    1.40
  -2 -11  14   62.39    4.30
  -1 -11  14   42.40    3.20
   0 -11  14   29.00    2.90
   1 -11  14    0.00    2.70
   2 -11  14   52.89    4.60
   3 -11  14   22.30    2.70
   4 -11  14    2.80    2.50
   5 -11  14    0.80    3.30
  -7 -10  14    9.80    2.60
  -6 -10  14    5.70    2.30
  -5 -10  14   55.39    3.30
  -4 -10  14   12.90    1.80
  -3 -10  14   10.40    1.60
  -2 -10  14    0.00    3.20
  -1 -10  14   39.60    3.20
   0 -10  14   63.79    6.20
   1 -10  14   25.40    4.40
   2 -10  14   31.10    3.60
   3 -10  14   10.80    2.00
   4 -10  14    7.20    2.30
   5 -10  14    0.00    2.50
   6 -10  14   51.49    3.80
  -8  -9  14    5.70    3.30
  -7  -9  14   10.40    2.30
  -6  -9  14   35.60    2.90
  -5  -9  14   18.80    2.40
  -4  -9  14   22.50    2.30
  -3  -9  14    1.50    1.40
  -2  -9  14   10.50    2.20
  -1  -9  14   42.20    4.00
   0  -9  14    9.50    1.40
   1  -9  14    0.00    5.00
   2  -9  14    9.80    2.10
   3  -9  14    0.60    1.10
   4  -9  14   11.60    2.30
   5  -9  14    2.90    2.50
   6  -9  14   22.40    3.90
   7  -9  14   23.70    3.00
  -9  -8  14    7.20    3.70
  -8  -8  14    3.00    2.50
  -7  -8  14    8.70    4.00
  -6  -8  14   40.50    3.70
  -5  -8  14    4.70    2.40
  -4  -8  14   75.49    3.00
  -3  -8  14   27.40    2.70
  -2  -8  14   26.70    2.70
  -1  -8  14   13.00    2.00
   0  -8  14   84.99    4.60
   1  -8  14   28.20    2.20
   2  -8  14   43.20    3.40
   3  -8  14    0.90    2.30
   4  -8  14   12.10    2.30
   5  -8  14   83.49    7.30
   6  -8  14   14.40    2.80
   7  -8  14    9.90    3.20
   8  -8  14   52.39    3.70
  -9  -7  14    3.20    1.80
  -8  -7  14    9.10    1.50
  -7  -7  14   33.10    4.40
  -6  -7  14    0.00    1.90
  -5  -7  14    5.50    3.10
  -4  -7  14    9.10    2.70
  -3  -7  14   18.30    1.70
  -2  -7  14   10.50    2.10
  -1  -7  14    8.10    2.10
   0  -7  14    7.70    1.40
   1  -7  14   12.50    2.40
   2  -7  14   81.59    3.20
   3  -7  14    3.10    2.00
   4  -7  14   33.70    3.90
   5  -7  14    1.10    3.00
   6  -7  14    5.60    3.30
   7  -7  14    7.00    3.50
   8  -7  14    5.40    1.90
 -10  -6  14   11.80    1.60
  -9  -6  14   11.70    1.60
  -8  -6  14   13.50    2.30
  -7  -6  14   30.20    2.20
  -6  -6  14    3.40    1.30
  -5  -6  14   10.00    1.60
  -4  -6  14   27.10    1.80
  -3  -6  14   32.70    1.40
  -2  -6  14   20.20    2.00
  -1  -6  14   18.40    2.80
   0  -6  14    2.50    0.80
   1  -6  14    8.80    1.40
   2  -6  14   14.70    2.00
   3  -6  14   21.80    2.20
   4  -6  14   38.50    2.30
   5  -6  14   15.40    4.70
   6  -6  14    4.10    2.20
   7  -6  14    2.50    1.80
   8  -6  14    2.90    2.10
   9  -6  14   10.20    2.00
 -10  -5  14    1.10    1.30
  -9  -5  14   58.89    2.80
  -8  -5  14   11.20    2.90
  -7  -5  14    7.60    1.40
  -6  -5  14   17.80    1.80
  -5  -5  14    8.70    2.40
  -4  -5  14   59.59    1.70
  -3  -5  14   37.30    1.40
  -2  -5  14   62.89    5.90
  -1  -5  14    6.90    1.40
   0  -5  14   17.20    1.10
   1  -5  14   64.19    2.30
   2  -5  14    0.00    4.90
   3  -5  14    7.80    1.20
   4  -5  14   20.50    1.20
   5  -5  14   15.90    3.20
   6  -5  14   73.79    3.30
   7  -5  14    5.70    1.50
   8  -5  14   48.30    6.00
   9  -5  14   11.50    1.90
 -11  -4  14   62.39    2.80
 -10  -4  14   59.99    2.80
  -9  -4  14    6.40    1.40
  -8  -4  14  127.39    4.30
  -7  -4  14    5.50    1.30
  -6  -4  14    8.50    1.50
  -5  -4  14   32.60    3.40
  -4  -4  14   82.99    2.70
  -3  -4  14   15.20    1.20
  -2  -4  14    0.70    2.30
  -1  -4  14   11.90    0.90
   0  -4  14   76.59    2.80
   1  -4  14   14.50    1.60
   2  -4  14   10.80    1.80
   3  -4  14   27.50    1.80
   4  -4  14   15.80    1.40
   5  -4  14    2.90    1.00
   6  -4  14   25.80    2.60
   7  -4  14    2.70    2.60
   8  -4  14   10.30    2.40
   9  -4  14    1.20    1.60
 -11  -3  14    9.70    1.70
 -10  -3  14    7.30    1.70
  -9  -3  14   89.69    4.50
  -8  -3  14    0.70    0.90
  -7  -3  14   41.90    2.50
  -6  -3  14   30.30    3.20
  -5  -3  14   44.30    4.10
  -4  -3  14    6.50    1.30
  -3  -3  14  124.59    3.90
  -2  -3  14  126.09    3.70
  -1  -3  14    0.00    0.90
   0  -3  14    8.50    1.00
   1  -3  14    6.60    1.10
   2  -3  14   89.59    3.30
   3  -3  14  151.18    5.60
   4  -3  14   32.50    3.30
   5  -3  14   27.50    3.20
   6  -3  14    5.60    1.70
   7  -3  14   29.00    3.90
   8  -3  14   19.40    2.20
   9  -3  14   19.30    3.20
  10  -3  14   89.29    4.70
 -11  -2  14    3.50    1.40
 -10  -2  14    3.90    1.80
  -9  -2  14    7.70    1.60
  -8  -2  14    0.50    0.90
  -7  -2  14   17.00    1.50
  -6  -2  14   20.70    1.50
  -5  -2  14   66.39    3.20
  -4  -2  14  109.39    3.60
  -3  -2  14    3.40    1.00
  -2  -2  14  146.19    4.70
  -1  -2  14   19.10    1.70
   0  -2  14  109.39    3.60
   1  -2  14    3.80    1.40
   2  -2  14  264.77    6.60
   3  -2  14   12.50    2.30
   4  -2  14   50.39    1.90
   5  -2  14   56.79    6.30
   6  -2  14   45.40    2.50
   7  -2  14   24.40    2.90
   8  -2  14   17.00    2.50
   9  -2  14   25.90    3.50
  10  -2  14   15.30    2.60
 -11  -1  14    9.40    1.80
 -10  -1  14    0.30    1.50
  -9  -1  14   10.30    1.70
  -8  -1  14   25.10    2.10
  -7  -1  14    5.60    1.70
  -6  -1  14    7.30    1.20
  -5  -1  14    1.10    1.60
  -4  -1  14  187.48    5.30
  -3  -1  14    1.10    0.60
  -2  -1  14    3.30    1.20
  -1  -1  14   11.20    3.50
   0  -1  14    1.30    0.60
   1  -1  14  138.99    3.90
   2  -1  14   14.60    1.50
   3  -1  14    2.70    0.70
   4  -1  14   22.10    1.20
   5  -1  14   42.50    2.30
   6  -1  14    1.40    1.50
   7  -1  14   16.10    3.00
   8  -1  14    6.70    2.90
   9  -1  14    3.90    2.70
  10  -1  14   20.70    2.90
 -11   0  14    8.20    4.20
 -10   0  14   20.60    2.60
  -9   0  14    0.80    1.30
  -8   0  14    3.60    2.00
  -7   0  14    5.10    1.20
  -6   0  14   60.49    2.20
  -5   0  14    6.50    1.20
  -4   0  14    3.10    1.00
  -3   0  14    2.40    0.70
  -2   0  14   34.90    2.00
  -1   0  14    0.00    2.20
   0   0  14   10.50    0.90
   1   0  14   82.29    2.20
   2   0  14   64.49    2.30
   3   0  14   91.69    2.40
   4   0  14   21.80    1.50
   5   0  14    3.30    1.20
   6   0  14    0.00    1.30
   7   0  14    0.00    1.40
   8   0  14   68.69    4.80
   9   0  14   55.59    3.80
  10   0  14   13.40    1.80
 -11   1  14    0.90    1.30
 -10   1  14    2.70    1.60
  -9   1  14    7.70    1.70
  -8   1  14    6.60    1.80
  -7   1  14   22.90    2.30
  -6   1  14   37.60    1.80
  -5   1  14    0.00    1.60
  -4   1  14   83.89    2.80
  -3   1  14    1.20    0.70
  -2   1  14    2.50    1.30
  -1   1  14   52.99    3.90
   0   1  14    2.60    0.70
   1   1  14  130.09    3.70
   2   1  14   14.50    1.50
   3   1  14   13.40    0.80
   4   1  14   27.10    2.20
   5   1  14    4.50    1.70
   6   1  14    0.00    1.30
   7   1  14  110.19    5.00
   8   1  14    8.90    3.00
   9   1  14   18.70    2.10
  10   1  14    2.70    1.50
 -11   2  14    6.50    1.40
 -10   2  14    8.60    1.60
  -9   2  14   10.00    2.40
  -8   2  14   20.30    1.90
  -7   2  14   23.80    2.00
  -6   2  14   11.40    1.60
  -5   2  14   29.20    2.00
  -4   2  14    7.50    0.90
  -3   2  14    9.30    1.40
  -2   2  14   34.20    4.90
  -1   2  14   34.30    1.70
   0   2  14   21.70    2.20
   1   2  14    0.00    2.00
   2   2  14   43.30    6.10
   3   2  14   52.79    1.70
   4   2  14   28.70    2.60
   5   2  14   27.00    3.40
   6   2  14   15.40    1.90
   7   2  14    5.20    1.80
   8   2  14    4.10    1.80
   9   2  14    8.40    1.80
  10   2  14   24.10    1.90
 -11   3  14   10.90    1.50
 -10   3  14    4.10    1.50
  -9   3  14   16.00    1.80
  -8   3  14   75.29    4.00
  -7   3  14    0.00    2.70
  -6   3  14    0.00    1.60
  -5   3  14    0.80    1.60
  -4   3  14   18.00    1.20
  -3   3  14   32.90    3.70
  -2   3  14   10.60    2.20
  -1   3  14   37.70    2.00
   0   3  14    2.40    1.40
   1   3  14    6.50    1.50
   2   3  14   22.30    1.90
   3   3  14   50.99    3.10
   4   3  14   49.00    3.60
   5   3  14   13.40    1.80
   6   3  14   12.80    1.70
   7   3  14   57.69    2.50
   8   3  14    6.00    1.30
   9   3  14    5.40    1.40
 -10   4  14   37.10    2.80
  -9   4  14   11.20    1.40
  -8   4  14   87.99    4.00
  -7   4  14   57.19    4.70
  -6   4  14    3.80    1.30
  -5   4  14   15.60    1.30
  -4   4  14    4.20    1.00
  -3   4  14    7.70    1.20
  -2   4  14   17.60    1.50
  -1   4  14   50.49    2.50
   0   4  14   49.90    1.90
   1   4  14   14.30    1.50
   2   4  14    7.30    1.70
   3   4  14    7.00    1.10
   4   4  14   24.20    1.40
   5   4  14    1.30    1.20
   6   4  14   23.70    2.00
   7   4  14    0.90    1.50
   8   4  14    3.40    1.80
   9   4  14    5.80    1.80
 -10   5  14   16.70    1.70
  -9   5  14   35.60    2.40
  -8   5  14    2.50    2.00
  -7   5  14   29.60    1.90
  -6   5  14    7.10    1.40
  -5   5  14   21.80    2.30
  -4   5  14   18.30    1.30
  -3   5  14   23.30    1.20
  -2   5  14    5.90    1.70
  -1   5  14    7.90    1.40
   0   5  14   33.50    1.40
   1   5  14    3.40    0.80
   2   5  14    2.40    1.30
   3   5  14  101.89    2.80
   4   5  14   69.59    2.40
   5   5  14   13.30    3.30
   6   5  14    8.10    1.50
   7   5  14   20.20    1.80
   8   5  14    3.30    2.30
   9   5  14   35.50    2.00
 -10   6  14   48.90    2.40
  -9   6  14    9.70    1.80
  -8   6  14   13.10    2.10
  -7   6  14    1.80    1.60
  -6   6  14    8.10    2.60
  -5   6  14    2.90    2.50
  -4   6  14   26.50    1.50
  -3   6  14   85.29    2.50
  -2   6  14    4.90    2.20
  -1   6  14   17.90    1.50
   0   6  14    9.30    1.00
   1   6  14    6.40    1.20
   2   6  14   22.90    2.70
   3   6  14   57.79    1.90
   4   6  14   38.10    2.00
   5   6  14    4.20    2.10
   6   6  14   62.99    3.60
   7   6  14    6.20    2.40
   8   6  14    8.60    2.20
  -9   7  14    1.70    1.50
  -8   7  14    3.10    1.20
  -7   7  14   47.80    7.40
  -6   7  14   61.49    3.80
  -5   7  14   81.09    3.50
  -4   7  14   76.69    3.50
  -3   7  14    9.30    3.00
  -2   7  14    1.60    1.10
  -1   7  14    1.40    1.60
   0   7  14    6.20    1.20
   1   7  14   19.30    1.80
   2   7  14    8.80    1.30
   3   7  14   86.69    3.30
   4   7  14   40.30    2.50
   5   7  14   57.99    4.10
   6   7  14  114.29    3.90
   7   7  14   13.10    3.00
   8   7  14   25.70    3.50
  -8   8  14    8.20    1.70
  -7   8  14   32.80    2.90
  -6   8  14   18.50    2.20
  -5   8  14   23.30    3.90
  -4   8  14   13.70    3.70
  -3   8  14   15.70    2.70
  -2   8  14    3.50    2.00
  -1   8  14    4.80    2.10
   0   8  14   16.30    2.40
   1   8  14    0.00    1.60
   2   8  14    4.20    2.30
   3   8  14    2.50    4.90
   4   8  14   20.20    1.90
   5   8  14   51.19    3.10
   6   8  14    5.70    3.50
   7   8  14   13.30    2.40
  -7   9  14   14.70    3.00
  -6   9  14  109.89    4.30
  -5   9  14   35.70    2.80
  -4   9  14   19.70    2.60
  -3   9  14   20.40    2.00
  -2   9  14   30.10    2.40
  -1   9  14    2.90    1.20
   0   9  14    4.40    1.80
   1   9  14   12.60    2.00
   2   9  14   30.40    3.30
   3   9  14   15.70    3.90
   4   9  14    2.30    1.10
   5   9  14   26.70    2.60
   6   9  14   49.20    3.60
  -6  10  14    2.00    2.90
  -5  10  14   22.40    2.50
  -4  10  14    0.80    1.20
  -3  10  14    3.30    1.50
  -2  10  14    6.10    3.10
  -1  10  14   22.50    2.30
   0  10  14   64.29    4.90
   1  10  14    0.00    2.10
   2  10  14    5.80    2.80
   3  10  14   12.00    1.60
   4  10  14    1.70    1.10
   5  10  14   19.30    3.00
  -5  11  14   13.50    2.80
  -4  11  14   10.30    1.80
  -3  11  14    4.30    1.40
  -2  11  14    8.90    2.50
  -1  11  14    0.90    1.80
   0  11  14    3.30    1.50
   1  11  14   12.90    1.90
   2  11  14    8.30    2.30
   3  11  14    5.00    1.30
  -2  12  14    8.10    1.40
  -1  12  14    2.70    2.30
   0  12  14   35.20    3.10
  -2 -12  15    6.70    2.00
  -1 -12  15    1.20    2.60
   0 -12  15    7.60    3.30
   1 -12  15   16.50    2.90
  -5 -11  15    5.00    2.10
  -4 -11  15    0.00    2.90
  -3 -11  15    7.80    1.40
  -2 -11  15    8.60    2.60
  -1 -11  15    0.00    2.40
   0 -11  15    3.70    2.20
   1 -11  15    8.70    2.50
   2 -11  15   18.60    2.80
   3 -11  15    1.00    2.40
   4 -11  15   58.49    2.90
  -6 -10  15    1.10    3.00
  -5 -10  15   30.90    2.30
  -4 -10  15    0.80    1.90
  -3 -10  15    4.60    1.20
  -2 -10  15    3.00    2.50
  -1 -10  15   19.10    2.20
   0 -10  15   24.40    3.60
   1 -10  15    0.00    2.30
   2 -10  15    8.40    2.80
   3 -10  15   17.10    3.20
   4 -10  15    5.30    2.40
   5 -10  15   10.50    2.80
  -7  -9  15    0.00    2.20
  -6  -9  15   29.50    3.00
  -5  -9  15   26.70    2.60
  -4  -9  15    0.80    0.90
  -3  -9  15    2.90    1.90
  -2  -9  15    8.70    3.20
  -1  -9  15    0.00    1.90
   0  -9  15    7.30    1.80
   1  -9  15    3.60    2.10
   2  -9  15   20.70    4.30
   3  -9  15    3.30    3.10
   4  -9  15    3.00    2.40
   5  -9  15    0.00    2.10
   6  -9  15   20.00    3.50
  -8  -8  15    1.10    1.70
  -7  -8  15   18.90    2.90
  -6  -8  15   26.10    2.70
  -5  -8  15  103.29   10.80
  -4  -8  15   18.20    1.60
  -3  -8  15    2.80    3.50
  -2  -8  15   12.10    3.10
  -1  -8  15   12.10    2.30
   0  -8  15    7.40    3.00
   1  -8  15   13.30    2.10
   2  -8  15   81.49    3.90
   3  -8  15    1.50    8.20
   4  -8  15    1.60    2.00
   5  -8  15    5.70    2.60
   6  -8  15    9.00    2.70
   7  -8  15   13.10    2.20
  -9  -7  15    6.70    1.30
  -8  -7  15    4.10    1.90
  -7  -7  15    3.20    4.40
  -6  -7  15    4.40    2.70
  -5  -7  15   22.30    3.20
  -4  -7  15   35.90    6.20
  -3  -7  15    6.60    3.00
  -2  -7  15    1.90    1.90
  -1  -7  15   38.70    3.60
   0  -7  15    9.50    1.30
   1  -7  15   17.50    2.80
   2  -7  15   14.30    2.50
   3  -7  15   11.80    4.30
   4  -7  15    2.00    1.70
   5  -7  15   24.60    2.60
   6  -7  15   23.20    2.90
   7  -7  15    4.10    2.30
  -9  -6  15   32.60    2.00
  -8  -6  15    8.60    3.50
  -7  -6  15    9.30    1.90
  -6  -6  15   17.20    2.00
  -5  -6  15    5.90    2.80
  -4  -6  15    5.60    1.30
  -3  -6  15   11.80    1.30
  -2  -6  15   12.20    2.40
  -1  -6  15    3.10    2.30
   0  -6  15  107.69    3.40
   1  -6  15   39.80    1.90
   2  -6  15    0.00    1.60
   3  -6  15    4.40    1.20
   4  -6  15   25.20    2.30
   5  -6  15    0.00    2.70
   6  -6  15   16.30    2.70
   7  -6  15    1.00    2.00
   8  -6  15    0.00    2.00
 -10  -5  15   16.40    1.90
  -9  -5  15    8.20    1.80
  -8  -5  15    8.80    3.60
  -7  -5  15    3.00    1.40
  -6  -5  15   37.60    2.90
  -5  -5  15   41.70    3.70
  -4  -5  15   39.10    1.80
  -3  -5  15   80.69    2.60
  -2  -5  15    3.20    2.40
  -1  -5  15   33.80    2.50
   0  -5  15   22.70    1.50
   1  -5  15   15.90    2.50
   2  -5  15   27.80    3.70
   3  -5  15    9.40    1.20
   4  -5  15   17.00    1.50
   5  -5  15   37.00   10.40
   6  -5  15   71.69    3.50
   7  -5  15    3.50    2.00
   8  -5  15    0.00    9.00
 -10  -4  15    9.50    1.60
  -9  -4  15   14.60    2.00
  -8  -4  15    2.90    1.40
  -7  -4  15   60.59    2.90
  -6  -4  15    1.60    2.00
  -5  -4  15    1.70    1.20
  -4  -4  15   33.20    1.40
  -3  -4  15    6.00    1.10
  -2  -4  15   19.00    1.80
  -1  -4  15    6.00    1.10
   0  -4  15    1.60    0.80
   1  -4  15   17.90    1.60
   2  -4  15    4.70    1.20
   3  -4  15   19.60    1.80
   4  -4  15    8.30    1.40
   5  -4  15   10.20    2.60
   6  -4  15    9.50    2.00
   7  -4  15    9.50    3.60
   8  -4  15    5.10    2.40
   9  -4  15   15.60    2.30
 -10  -3  15   92.29    4.70
  -9  -3  15    9.40    1.60
  -8  -3  15    0.50    1.10
  -7  -3  15    0.00    2.20
  -6  -3  15    9.80    1.90
  -5  -3  15   44.50    3.70
  -4  -3  15   21.70    2.60
  -3  -3  15   14.70    2.80
  -2  -3  15    8.20    1.40
  -1  -3  15   66.09    2.40
   0  -3  15   16.00    1.50
   1  -3  15    0.00    1.90
   2  -3  15    6.20    1.40
   3  -3  15    3.80    1.90
   4  -3  15   15.60    1.70
   5  -3  15    3.00    1.70
   6  -3  15   42.40    3.50
   7  -3  15    4.00    2.40
   8  -3  15   16.40    2.30
   9  -3  15    2.70    2.60
 -10  -2  15    6.30    2.30
  -9  -2  15    5.50    1.40
  -8  -2  15    8.20    1.40
  -7  -2  15   41.80    2.90
  -6  -2  15    0.00    1.80
  -5  -2  15  157.98    6.20
  -4  -2  15   15.20    2.20
  -3  -2  15   19.60    2.00
  -2  -2  15   32.70    1.60
  -1  -2  15   17.00    1.70
   0  -2  15   14.90    1.60
   1  -2  15   10.00    1.40
   2  -2  15    1.50    1.50
   3  -2  15    8.80    3.30
   4  -2  15   15.70    1.10
   5  -2  15   24.40    2.00
   6  -2  15  100.69    4.60
   7  -2  15    7.40    2.50
   8  -2  15    2.20    1.90
   9  -2  15    2.20    2.70
 -10  -1  15   23.10    2.80
  -9  -1  15    6.10    1.50
  -8  -1  15    2.00    1.20
  -7  -1  15   15.20    3.30
  -6  -1  15    8.20    1.20
  -5  -1  15    0.00    1.70
  -4  -1  15   33.10    2.00
  -3  -1  15   10.80    0.90
  -2  -1  15    8.00    1.60
  -1  -1  15   31.20    1.30
   0  -1  15   16.50    1.20
   1  -1  15    0.00    1.30
   2  -1  15   25.00    1.70
   3  -1  15    2.90    0.60
   4  -1  15    5.00    0.80
   5  -1  15   72.19    3.40
   6  -1  15    3.40    1.40
   7  -1  15    8.40    2.90
   8  -1  15    6.40    2.70
   9  -1  15    9.60    2.60
 -10   0  15    8.90    1.50
  -9   0  15    9.60    1.60
  -8   0  15    0.00    6.00
  -7   0  15    9.00    1.50
  -6   0  15   26.50    1.40
  -5   0  15    0.00    1.20
  -4   0  15   16.50    1.30
  -3   0  15   86.59    2.40
  -2   0  15   13.20    1.50
  -1   0  15   55.49    1.90
   0   0  15   11.10    1.00
   1   0  15    0.00    1.60
   2   0  15   11.30    1.50
   3   0  15   21.00    1.20
   4   0  15    1.90    0.70
   5   0  15    9.90    1.60
   6   0  15    9.20    3.10
   7   0  15   55.99    3.40
   8   0  15   28.60    4.80
   9   0  15    2.70    1.80
 -10   1  15   11.60    1.80
  -9   1  15   26.20    2.40
  -8   1  15   12.30    3.30
  -7   1  15   80.39    4.60
  -6   1  15   28.00    1.60
  -5   1  15    9.60    1.80
  -4   1  15   36.80    1.80
  -3   1  15    4.60    0.80
  -2   1  15   12.60    1.30
  -1   1  15    7.60    1.00
   0   1  15   14.10    1.10
   1   1  15    0.00    1.00
   2   1  15    9.70    1.30
   3   1  15    9.50    0.90
   4   1  15    9.30    1.40
   5   1  15   56.59    2.70
   6   1  15    5.10    2.00
   7   1  15    1.20    4.90
   8   1  15    3.40    1.60
   9   1  15    8.00    1.50
 -10   2  15   36.40    2.60
  -9   2  15   10.80    2.70
  -8   2  15   68.99    3.90
  -7   2  15    0.00    1.90
  -6   2  15   11.90    2.40
  -5   2  15   44.70    3.40
  -4   2  15    9.90    1.10
  -3   2  15   87.49    6.30
  -2   2  15    1.40    1.50
  -1   2  15   18.10    1.50
   0   2  15   16.50    1.30
   1   2  15    0.00    1.90
   2   2  15    6.80    1.50
   3   2  15   25.90    1.70
   4   2  15    4.00    2.40
   5   2  15    3.10    1.60
   6   2  15   23.50    2.80
   7   2  15   52.29    3.10
   8   2  15   13.30    1.90
   9   2  15   18.90    1.90
 -10   3  15    6.90    1.90
  -9   3  15    4.90    1.60
  -8   3  15    3.70    1.60
  -7   3  15    3.90    3.60
  -6   3  15    5.40    1.70
  -5   3  15   15.40    1.90
  -4   3  15   29.20    2.00
  -3   3  15    8.00    1.80
  -2   3  15   32.50    1.80
  -1   3  15    8.20    1.60
   0   3  15   14.40    1.50
   1   3  15   26.90    2.10
   2   3  15   13.70    1.60
   3   3  15   31.30    2.70
   4   3  15   12.50    2.10
   5   3  15    0.00    1.60
   6   3  15   17.30    1.90
   7   3  15    5.50    2.10
   8   3  15    4.30    1.40
   9   3  15    6.70    1.40
 -10   4  15    5.10    1.30
  -9   4  15    0.30    1.20
  -8   4  15   10.40    2.70
  -7   4  15   10.00    2.00
  -6   4  15   18.80    2.00
  -5   4  15   19.10    2.00
  -4   4  15   21.40    1.50
  -3   4  15   88.19    2.40
  -2   4  15   13.70    1.80
  -1   4  15    0.00    1.70
   0   4  15   10.00    1.20
   1   4  15   52.59    1.90
   2   4  15   13.10    2.20
   3   4  15  120.19    2.80
   4   4  15   42.60    1.80
   5   4  15   20.20    2.60
   6   4  15    3.90    2.30
   7   4  15    7.40    1.80
   8   4  15    6.10    1.70
  -9   5  15    4.50    1.60
  -8   5  15   10.90    2.90
  -7   5  15    2.20    1.90
  -6   5  15    6.30    1.30
  -5   5  15   10.50    3.90
  -4   5  15    0.90    1.10
  -3   5  15   22.60    1.30
  -2   5  15  110.19    4.20
  -1   5  15   10.40    1.80
   0   5  15    2.30    0.60
   1   5  15   24.40    1.60
   2   5  15   33.70    2.60
   3   5  15  125.39    3.10
   4   5  15   12.70    1.40
   5   5  15   18.60    3.00
   6   5  15    4.10    1.70
   7   5  15   31.60    2.50
   8   5  15    2.00    2.00
  -9   6  15   40.40    2.90
  -8   6  15   17.10    2.30
  -7   6  15   11.60    2.30
  -6   6  15   79.79    4.80
  -5   6  15   23.50    2.70
  -4   6  15   10.20    1.40
  -3   6  15    6.60    1.10
  -2   6  15   16.40    2.50
  -1   6  15    5.00    1.40
   0   6  15   14.50    1.10
   1   6  15   21.10    2.50
   2   6  15    6.70    1.70
   3   6  15   51.99    2.00
   4   6  15    5.90    1.50
   5   6  15    5.70    2.50
   6   6  15    6.50    1.60
   7   6  15    0.60    3.10
  -8   7  15  102.29    4.50
  -7   7  15    4.30    3.10
  -6   7  15    0.00    3.90
  -5   7  15    0.00    3.30
  -4   7  15    3.00    1.10
  -3   7  15   95.99    3.50
  -2   7  15   53.89    2.80
  -1   7  15    6.50    2.00
   0   7  15    1.00    1.10
   1   7  15    8.90    1.90
   2   7  15    4.00    1.80
   3   7  15    9.40    1.70
   4   7  15  108.49    4.80
   5   7  15   26.30    2.90
   6   7  15    4.60    2.10
   7   7  15   31.30    2.00
  -7   8  15    2.80    2.40
  -6   8  15   15.50    2.80
  -5   8  15    5.40    2.50
  -4   8  15    7.80    2.30
  -3   8  15    3.80    2.60
  -2   8  15    3.00    2.20
  -1   8  15   40.40    5.70
   0   8  15   21.80    2.60
   1   8  15    0.00    4.50
   2   8  15    3.00    2.60
   4   8  15    0.60    1.20
   5   8  15   37.50    3.90
   6   8  15    9.60    1.90
  -6   9  15    2.80    3.20
  -5   9  15    0.90    1.90
  -4   9  15   23.30    3.10
  -3   9  15   18.20    2.00
  -2   9  15    6.30    2.60
  -1   9  15   10.40    2.90
   0   9  15   14.00    1.90
   1   9  15   25.40    2.40
   2   9  15    0.00    2.00
   3   9  15   11.00    2.90
   4   9  15   17.90    2.00
   5   9  15    9.30    2.10
  -5  10  15    0.00    2.70
  -4  10  15    3.00    1.20
  -3  10  15    1.40    1.20
  -2  10  15   35.80    3.80
  -1  10  15    3.00    2.10
   0  10  15    7.00    1.50
   1  10  15   25.00    2.10
   2  10  15   41.70    3.90
   3  10  15   31.10    2.40
  -2  11  15    2.60    1.10
  -1  11  15   26.20    2.50
   0  11  15    2.10    1.50
   1  11  15    0.00    2.70
  -2 -11  16    5.10    1.60
  -1 -11  16   54.99    3.60
   0 -11  16    3.20    2.00
   1 -11  16    4.80    3.60
  -5 -10  16    0.00    2.40
  -4 -10  16    2.50    1.50
  -3 -10  16    3.80    2.00
  -2 -10  16   37.30    4.90
  -1 -10  16    0.00    2.30
   0 -10  16    1.40    1.90
   1 -10  16   14.30    3.00
   2 -10  16   16.50    4.30
   3 -10  16   32.10    3.90
  -6  -9  16    0.00    2.80
  -5  -9  16   10.60    2.30
  -4  -9  16    9.50    1.50
  -3  -9  16    2.90    3.00
  -2  -9  16    9.10    3.00
  -1  -9  16    0.00    2.80
   0  -9  16    2.70    1.80
   1  -9  16   18.00    2.70
   2  -9  16    0.80    3.20
   3  -9  16    1.20    2.90
   4  -9  16    8.70    3.10
   5  -9  16   16.00    2.30
  -7  -8  16    3.00    2.00
  -6  -8  16   10.40    2.30
  -5  -8  16   12.00    3.20
  -4  -8  16   10.40    1.80
  -2  -8  16    7.30    3.30
  -1  -8  16  116.09    5.70
   0  -8  16   28.70    3.10
   1  -8  16   27.30    4.60
   2  -8  16    0.00    3.90
   4  -8  16   14.80    2.30
   5  -8  16   11.40    3.80
   6  -8  16    7.80    1.90
  -8  -7  16    4.20    1.70
  -7  -7  16   14.30    2.80
  -6  -7  16    0.00    1.80
  -5  -7  16    0.00    2.30
  -4  -7  16   24.50    4.70
  -3  -7  16   35.40    2.70
  -2  -7  16    5.40    2.30
  -1  -7  16    6.00    2.20
   0  -7  16    3.60    1.30
   1  -7  16   18.00    2.60
   2  -7  16   32.40    4.50
   3  -7  16   20.30    7.40
   4  -7  16   32.90    4.00
   5  -7  16   15.90    3.20
   6  -7  16    6.60    2.90
  -8  -6  16   14.90    2.90
  -7  -6  16   19.80    2.30
  -6  -6  16    2.30    1.60
  -5  -6  16   36.10    3.70
  -4  -6  16   55.99    2.70
  -3  -6  16   51.29    2.20
  -2  -6  16    9.10    2.50
  -1  -6  16   37.80    4.20
   0  -6  16   23.10    1.90
   1  -6  16   29.40    2.60
   2  -6  16   17.10    3.30
   3  -6  16  107.09    3.30
   4  -6  16    2.80    1.50
   5  -6  16   36.20    3.60
   6  -6  16    4.00    2.40
   7  -6  16    1.00    2.30
  -9  -5  16    5.70    1.50
  -8  -5  16   25.30    5.20
  -7  -5  16   15.90    1.90
  -6  -5  16   51.79    3.10
  -5  -5  16   50.29    4.90
  -4  -5  16   25.30    1.50
  -3  -5  16   29.00    2.20
  -2  -5  16   10.00    3.10
  -1  -5  16    3.60    1.20
   0  -5  16   11.30    1.20
   1  -5  16    0.80    1.50
   2  -5  16   44.60    5.80
   3  -5  16   14.20    1.30
   4  -5  16   30.00    2.00
   5  -5  16   41.20   14.40
   6  -5  16    3.50    2.30
   7  -5  16   43.80    5.40
  -9  -4  16    5.00    1.60
  -8  -4  16   15.00    2.60
  -7  -4  16   31.30    2.40
  -6  -4  16    7.50    2.30
  -5  -4  16    8.30    3.00
  -4  -4  16   27.60    2.00
  -3  -4  16   23.50    1.80
  -2  -4  16    9.60    2.50
  -1  -4  16    3.20    1.30
   0  -4  16    3.20    1.00
   1  -4  16   21.90    2.10
   2  -4  16    7.30    2.50
   3  -4  16    6.60    1.30
   4  -4  16   13.10    1.50
   5  -4  16   16.70    1.90
   6  -4  16   61.19    5.90
   7  -4  16   16.40    2.50
   8  -4  16    7.20    1.90
  -9  -3  16   19.60    2.40
  -8  -3  16    5.60    1.60
  -7  -3  16    7.50    2.00
  -6  -3  16   23.20    3.50
  -5  -3  16   18.00    2.60
  -4  -3  16   14.10    1.90
  -3  -3  16   15.40    6.90
  -2  -3  16    3.10    1.80
  -1  -3  16   21.60    2.30
   0  -3  16    9.40    1.60
   1  -3  16   10.30    1.90
   2  -3  16    6.20    1.70
   3  -3  16    9.00    3.50
   4  -3  16    5.20    1.50
   5  -3  16    2.00    1.60
   6  -3  16   18.00    4.00
   7  -3  16   42.80    7.30
   8  -3  16   16.20    2.00
  -9  -2  16    1.40    1.50
  -8  -2  16    6.20    1.50
  -7  -2  16    0.00    2.30
  -6  -2  16   12.70    3.50
  -5  -2  16    2.60    1.50
  -4  -2  16   17.90    1.60
  -3  -2  16    1.50    1.10
  -2  -2  16    3.20    1.20
  -1  -2  16   38.20    1.90
   0  -2  16  153.78    5.60
   1  -2  16    0.00    1.70
   2  -2  16    6.00    1.70
   3  -2  16    1.70    2.20
   4  -2  16   12.90    1.20
   5  -2  16   12.80    2.20
   6  -2  16   85.19    3.80
   7  -2  16    3.10    3.30
   8  -2  16   18.00    2.40
  -9  -1  16    5.70    1.40
  -8  -1  16    7.40    1.80
  -7  -1  16    1.50    2.50
  -6  -1  16    0.00    1.40
  -5  -1  16    0.00    2.60
  -4  -1  16   44.20    2.00
  -3  -1  16    8.60    0.90
  -2  -1  16    1.90    1.20
  -1  -1  16   34.60    1.70
   0  -1  16    4.70    0.80
   1  -1  16   11.10    1.80
   2  -1  16    3.50    1.50
   3  -1  16    2.00    0.80
   4  -1  16    7.40    0.90
   5  -1  16   29.90    2.50
   6  -1  16    0.60    1.80
   7  -1  16    3.30    1.80
   8  -1  16    3.50    2.20
  -9   0  16   39.70    2.90
  -8   0  16   30.40    5.20
  -7   0  16   24.70    4.10
  -6   0  16   73.19    3.20
  -5   0  16    4.60    1.70
  -4   0  16    4.40    0.80
  -3   0  16    3.00    0.80
  -2   0  16    5.10    1.20
  -1   0  16    0.00    1.10
   0   0  16   27.30    1.90
   1   0  16    5.60    0.90
   2   0  16    7.90    1.40
   3   0  16   32.60    1.50
   4   0  16   16.50    1.30
   5   0  16   26.90    2.00
   6   0  16    8.10    1.90
   7   0  16   17.60    3.20
   8   0  16    8.20    3.40
  -9   1  16    2.90    1.80
  -8   1  16    9.50    1.90
  -7   1  16    0.00    3.10
  -6   1  16    0.10    1.90
  -5   1  16    0.00    3.20
  -4   1  16   16.20    1.30
  -3   1  16   16.90    1.20
  -2   1  16    4.00    1.30
  -1   1  16    6.40    1.50
   0   1  16    6.90    1.20
   1   1  16   13.90    1.70
   2   1  16    1.40    1.20
   3   1  16    2.30    0.80
   4   1  16    4.90    3.90
   5   1  16   19.10    2.40
   6   1  16    0.00    1.80
   7   1  16    2.10    2.10
   8   1  16    0.60    2.20
  -9   2  16   15.60    2.60
  -8   2  16    2.50    1.80
  -7   2  16   10.30    2.70
  -6   2  16    2.60    2.80
  -5   2  16    6.90    2.30
  -4   2  16    2.20    1.00
  -3   2  16   10.10    2.10
  -2   2  16    3.90    1.50
  -1   2  16    8.00    1.30
   0   2  16   31.40    3.50
   1   2  16    1.90    1.20
   2   2  16    6.90    1.70
   3   2  16   38.20    2.20
   4   2  16    6.20    2.50
   5   2  16    0.00    2.20
   6   2  16   28.50    2.40
   7   2  16   35.50    4.00
   8   2  16    6.30    2.50
  -9   3  16    3.30    1.50
  -8   3  16    1.60    1.40
  -7   3  16    9.30    2.30
  -6   3  16   26.50    2.60
  -5   3  16    6.30    1.70
  -4   3  16   14.50    1.90
  -3   3  16   26.00    3.20
  -2   3  16    2.40    1.60
  -1   3  16    0.70    1.50
   0   3  16   17.80    1.70
   1   3  16    7.60    2.10
   2   3  16    2.00    2.80
   3   3  16   18.20    5.00
   4   3  16    8.90    1.70
   5   3  16   22.40    2.10
   6   3  16    0.50    2.80
   7   3  16   10.00    2.70
   8   3  16   11.40    2.10
  -9   4  16   33.70    2.50
  -8   4  16    2.10    1.70
  -7   4  16   18.50    2.20
  -6   4  16   10.20    2.00
  -5   4  16    8.30    1.60
  -4   4  16    4.90    1.20
  -3   4  16   15.60    1.40
  -2   4  16   39.40    3.40
  -1   4  16    0.00    1.70
   0   4  16   39.20    1.80
   1   4  16    5.30    1.20
   2   4  16   33.30    4.60
   3   4  16   62.49    2.50
   4   4  16   21.40    2.10
   5   4  16    2.20    1.70
   6   4  16    0.00    2.30
   7   4  16    3.90    1.70
  -8   5  16   12.50    5.10
  -7   5  16   29.60    3.40
  -6   5  16    6.60    1.80
  -5   5  16    0.00    5.70
  -4   5  16   15.10    1.50
  -3   5  16   31.40    1.50
  -2   5  16   66.19    6.40
  -1   5  16    4.70    1.70
   0   5  16   17.10    1.40
   1   5  16    2.50    1.10
   2   5  16   23.80    3.90
   3   5  16   23.30    1.80
   4   5  16   14.10    1.80
   5   5  16    8.10    4.20
   6   5  16   10.10    2.10
   7   5  16    4.70    1.70
  -8   6  16   17.50    1.90
  -7   6  16    6.90    2.10
  -6   6  16    0.60    2.60
  -5   6  16    4.60    3.90
  -4   6  16    7.90    1.30
  -3   6  16   21.30    2.00
  -2   6  16   55.69    4.10
  -1   6  16    5.00    1.50
   0   6  16    4.40    0.90
   1   6  16    0.00    2.80
   2   6  16   14.50    3.30
   3   6  16   28.20    1.80
   4   6  16   12.20    2.00
   5   6  16   10.30    1.70
   6   6  16    6.30    1.60
  -7   7  16    0.00    2.00
  -6   7  16    1.40    2.10
  -5   7  16    0.80    2.20
  -4   7  16   57.29    3.10
  -3   7  16   56.69    5.10
  -2   7  16   41.00    3.40
  -1   7  16   17.10    2.70
   0   7  16    4.20    1.70
   1   7  16    1.80    2.10
   2   7  16   16.80    2.80
   3   7  16   10.00    2.40
   4   7  16   17.00    2.10
   5   7  16   23.20    2.70
  -6   8  16    7.80    2.10
  -5   8  16   32.80    3.30
  -4   8  16    0.10    2.00
  -3   8  16    7.40    2.40
  -2   8  16   17.10    2.90
  -1   8  16    0.00    2.40
   0   8  16   22.30    3.70
   1   8  16    1.80    2.10
   2   8  16    8.70    2.30
   4   8  16    5.60    1.50
  -5   9  16    1.20    2.10
  -4   9  16   40.90    4.70
  -3   9  16    2.60    1.30
  -2   9  16    4.50    2.10
  -1   9  16    2.30    2.60
   0   9  16    2.20    2.50
   1   9  16   13.50    2.30
   2   9  16   18.50    2.70
   3   9  16    7.20    2.30
  -2  10  16   38.20    2.70
  -1  10  16    9.60    1.70
   0  10  16   28.10    2.60
   1  10  16    7.90    2.20
  -2 -10  17   51.59    2.80
  -1 -10  17    7.00    2.30
   0 -10  17   10.30    2.30
   1 -10  17    0.60    3.30
  -4  -9  17   14.60    2.70
  -3  -9  17    8.30    3.30
  -2  -9  17    4.20    3.30
  -1  -9  17    2.50    2.20
   0  -9  17   18.40    3.10
   1  -9  17    0.00    2.50
   2  -9  17   44.60    4.10
   3  -9  17    5.50    2.70
  -5  -8  17   19.50    4.60
  -4  -8  17    2.70    1.90
  -2  -8  17   25.00    4.70
  -1  -8  17    0.80    2.60
   0  -8  17   28.30    2.90
   1  -8  17   24.00    2.60
   2  -8  17    7.50    5.00
   4  -8  17   36.40    3.30
  -6  -7  17   25.50    2.30
  -5  -7  17   33.00    4.40
  -4  -7  17   19.20    4.30
  -3  -7  17   31.10    5.40
  -2  -7  17   43.10    5.40
  -1  -7  17    7.50    2.40
   0  -7  17    8.00    1.60
   1  -7  17    9.80    3.90
   2  -7  17   56.49    6.90
   3  -7  17    5.00    5.90
   4  -7  17    7.30    3.50
   5  -7  17    0.60    2.90
  -7  -6  17    2.10    2.50
  -6  -6  17    1.10    1.60
  -5  -6  17    6.10    2.90
  -4  -6  17   53.79    3.00
  -3  -6  17   18.20    2.30
  -2  -6  17   59.29    6.20
  -1  -6  17   39.80   14.30
   0  -6  17  202.68    7.70
   1  -6  17   63.49    5.70
   2  -6  17   33.40    6.00
   3  -6  17    3.90    1.80
   4  -6  17    9.10    2.00
   5  -6  17    3.30    3.70
   6  -6  17    3.40    2.20
  -8  -5  17   20.20    2.70
  -7  -5  17   91.49    4.70
  -6  -5  17   10.10    1.70
  -5  -5  17    3.30    8.00
  -4  -5  17   65.29    3.50
  -3  -5  17   24.10    2.00
  -2  -5  17   11.50    2.70
  -1  -5  17   32.90    2.70
   0  -5  17    4.20    1.10
   1  -5  17   47.50    3.00
   2  -5  17    4.00    4.20
   3  -5  17   56.69    2.30
   4  -5  17   28.40    3.20
   5  -5  17   35.10   24.80
   6  -5  17   57.29    4.20
  -8  -4  17    7.90    1.60
  -7  -4  17    8.60    2.00
  -6  -4  17   23.90    4.40
  -5  -4  17    5.10    3.30
  -4  -4  17   81.39    3.50
  -3  -4  17    5.30    1.50
  -2  -4  17    8.20    5.00
  -1  -4  17    6.10    2.10
   0  -4  17    2.00    1.00
   1  -4  17    1.80    3.40
   2  -4  17   11.70    3.60
   3  -4  17    2.90    1.20
   4  -4  17    6.80    1.80
   5  -4  17   13.60    3.30
   6  -4  17    8.60    3.50
   7  -4  17   10.90    3.00
  -8  -3  17    1.30    1.20
  -7  -3  17  171.58    8.20
  -6  -3  17   37.80    5.50
  -5  -3  17   18.60    2.40
  -4  -3  17    4.00    1.30
  -3  -3  17    3.80    3.60
  -2  -3  17   11.70    1.70
  -1  -3  17   15.10    5.20
   0  -3  17    4.00    1.60
   1  -3  17   49.80    4.80
   2  -3  17    1.80    2.30
   3  -3  17    4.20    4.40
   4  -3  17    4.20    1.80
   5  -3  17   69.39    3.70
   6  -3  17   37.70    3.60
   7  -3  17    8.90    2.60
  -8  -2  17    1.80    1.70
  -7  -2  17   14.50    3.10
  -6  -2  17    0.00    3.00
  -5  -2  17    0.30    2.10
  -4  -2  17   44.20    2.60
  -3  -2  17   38.40    3.20
  -2  -2  17    2.70    8.50
  -1  -2  17    5.60    1.50
   0  -2  17   66.99    4.60
   1  -2  17   14.10    2.10
   2  -2  17   16.10    4.30
   3  -2  17   35.60    3.40
   4  -2  17    2.80    1.00
   5  -2  17   36.20    2.20
   6  -2  17   30.10    2.50
   7  -2  17   14.70    2.90
  -9  -1  17    7.30    1.80
  -8  -1  17    1.50    1.60
  -7  -1  17    7.00    1.90
  -6  -1  17    4.40    1.90
  -5  -1  17    0.00    1.90
  -4  -1  17    1.70    1.30
  -3  -1  17   20.40    1.70
  -2  -1  17    3.60    1.80
  -1  -1  17   10.80    2.00
   0  -1  17    8.40    1.60
   1  -1  17    2.70    1.60
   2  -1  17    4.70    2.30
   3  -1  17    2.00    1.40
   4  -1  17    3.40    1.10
   5  -1  17    9.60    2.20
   6  -1  17   12.90    2.00
   7  -1  17    1.10    2.10
  -9   0  17   20.30    2.30
  -8   0  17   10.80    3.50
  -7   0  17   47.40    3.50
  -6   0  17    0.00    1.90
  -5   0  17    0.00    2.10
  -4   0  17   25.30    1.60
  -3   0  17   50.29    1.90
  -2   0  17   71.79    4.00
  -1   0  17    0.00    1.80
   0   0  17   36.70    2.80
   1   0  17   17.80    1.80
   2   0  17   41.00    3.40
   3   0  17    3.40    0.80
   4   0  17   51.09    2.70
   5   0  17   37.40    3.30
   6   0  17   13.20    1.80
   7   0  17    1.40    2.50
  -8   1  17   11.40    3.10
  -7   1  17    6.70    1.80
  -6   1  17    8.80    1.70
  -5   1  17    5.10    3.30
  -4   1  17    2.80    1.00
  -3   1  17    8.20    1.20
  -2   1  17    9.40    2.10
  -1   1  17    0.00    1.50
   0   1  17    2.00    1.30
   1   1  17   12.80    1.80
   2   1  17   23.60    3.40
   3   1  17   12.00    1.30
   4   1  17    7.50    2.80
   5   1  17    0.40    1.80
   6   1  17    3.00    1.90
   7   1  17   19.00    2.60
  -8   2  17    8.30    2.40
  -7   2  17   37.50    3.40
  -6   2  17    0.00    2.70
  -5   2  17    4.80    2.00
  -4   2  17    3.10    1.10
  -3   2  17   24.50    4.30
  -2   2  17   40.90    3.10
  -1   2  17   40.30    2.90
   0   2  17   11.00    2.80
   1   2  17   35.30    3.00
   2   2  17    6.20    1.80
   3   2  17    4.60    1.40
   4   2  17   16.20    3.80
   5   2  17    8.70    1.90
   6   2  17    0.00    2.00
   7   2  17   20.00    2.40
  -8   3  17    2.00    1.70
  -7   3  17   47.50    3.60
  -6   3  17   11.60    2.60
  -5   3  17    5.10    2.00
  -4   3  17   46.80    2.90
  -3   3  17    7.60    3.70
  -2   3  17   13.10    2.10
  -1   3  17   13.30    2.80
   0   3  17    8.10    1.40
   1   3  17    0.00    5.30
   2   3  17    8.90    2.00
   3   3  17    1.80    4.30
   4   3  17   22.00    3.10
   5   3  17    7.00    3.20
   6   3  17    0.00    3.20
  -8   4  17    9.70    1.70
  -7   4  17   13.80    2.20
  -6   4  17    6.90    2.10
  -5   4  17    4.30    1.50
  -4   4  17   24.30    1.90
  -3   4  17    3.10    1.30
  -2   4  17  102.59    5.60
  -1   4  17    6.70    1.80
   0   4  17   70.49    2.80
   1   4  17    1.70    1.40
   2   4  17   46.70   16.20
   3   4  17   13.30    1.70
   4   4  17   25.40    1.70
   5   4  17   11.90    2.40
   6   4  17   14.90    3.10
  -7   5  17    6.30    2.60
  -6   5  17    7.10    2.30
  -5   5  17   23.70    7.80
  -4   5  17   21.90    2.20
  -3   5  17   16.40    1.70
  -2   5  17   37.10    5.70
  -1   5  17   11.70    2.10
   0   5  17   14.00    1.40
   1   5  17    6.70    2.10
   2   5  17   42.00    7.40
   3   5  17   32.70    2.50
   4   5  17    9.00    1.80
   5   5  17   26.20    4.30
  -6   6  17   12.90    2.20
  -5   6  17    7.80    2.30
  -4   6  17   15.90    1.90
  -3   6  17    4.20    1.40
  -2   6  17   78.99    5.90
  -1   6  17   16.10    2.70
   0   6  17   11.90    1.50
   1   6  17   39.10    3.10
   2   6  17    1.40    3.90
   3   6  17   45.10    2.20
   4   6  17   92.69    3.80
   5   6  17    3.60    1.40
  -5   7  17    5.30    2.70
  -4   7  17   42.50    2.60
  -3   7  17   36.10    3.60
  -2   7  17   16.70    2.60
  -1   7  17    0.30    2.30
   0   7  17    3.20    1.80
   1   7  17    4.00    2.00
   2   7  17    2.90    2.10
   3   7  17    2.70    1.90
   4   7  17   13.10    1.80
  -4   8  17   13.50    2.00
  -3   8  17    1.00    1.10
  -2   8  17    2.50    2.10
  -1   8  17    1.20    2.20
   0   8  17   17.90    3.20
   1   8  17    3.90    2.10
   2   8  17    4.70    1.90
  -3  -8  18   13.60    2.10
  -2  -8  18    0.00    4.10
  -1  -8  18    0.00    2.40
   0  -8  18    3.60    2.70
   1  -8  18    1.90    2.30
   2  -8  18   27.40    6.10
  -5  -7  18    6.00    3.00
  -4  -7  18   26.50    4.20
  -3  -7  18    9.10    3.50
  -2  -7  18    7.20    2.70
  -1  -7  18   10.10    2.80
   0  -7  18   12.10    2.10
   1  -7  18   15.20    3.80
   2  -7  18    3.90    3.60
   3  -7  18   11.90    2.30
  -6  -6  18    7.00    1.80
  -5  -6  18   10.80    2.40
  -4  -6  18    8.50    3.00
  -3  -6  18   11.40    2.10
  -2  -6  18    7.00    3.10
  -1  -6  18   11.20    4.40
   0  -6  18    6.70    1.60
   1  -6  18  109.59    4.40
   2  -6  18   32.90    6.90
   3  -6  18   63.79    4.70
   4  -6  18   24.90    2.40
  -6  -5  18   14.60    2.60
  -5  -5  18   45.20   11.00
  -4  -5  18    2.80    2.00
  -3  -5  18   90.19    3.60
  -2  -5  18   10.50    4.70
  -1  -5  18   22.90    4.60
   0  -5  18    1.60    1.10
   1  -5  18    8.60    3.60
   2  -5  18    1.20    7.50
   3  -5  18   13.50    2.60
   4  -5  18   34.40    3.10
   5  -5  18   14.10    2.60
  -7  -4  18    3.50    1.80
  -6  -4  18   12.50    3.50
  -5  -4  18    8.80    3.20
  -4  -4  18   17.80    1.80
  -3  -4  18    5.50    1.70
  -2  -4  18    2.40    6.90
  -1  -4  18   36.30    2.80
   0  -4  18    3.30    1.50
   1  -4  18   35.70    3.90
   2  -4  18   15.60    3.70
   3  -4  18   21.50    2.70
   4  -4  18    6.60    2.80
   5  -4  18    1.80    3.00
  -7  -3  18    1.10    2.10
  -6  -3  18   25.30    3.50
  -5  -3  18    1.10    3.10
  -4  -3  18   26.80    2.30
  -2  -3  18    5.20    1.70
  -1  -3  18    4.90    3.20
   0  -3  18    1.20    1.60
   1  -3  18    2.30    1.90
   2  -3  18    2.10    2.00
   3  -3  18    6.60  108.09
   4  -3  18   36.50    3.10
   5  -3  18    0.00    2.80
   6  -3  18    7.80    1.60
  -7  -2  18   19.70    3.00
  -6  -2  18    7.30    2.30
  -5  -2  18    0.00    1.90
  -4  -2  18   51.59    2.80
  -2  -2  18   35.00    2.60
  -1  -2  18    0.00    4.60
   0  -2  18    8.70    1.80
   1  -2  18  100.69    4.50
   2  -2  18    6.10    1.90
   3  -2  18   13.60    5.70
   4  -2  18    4.10    1.90
   5  -2  18    0.80    2.70
   6  -2  18    5.80    2.20
  -7  -1  18   16.90    2.50
  -6  -1  18    4.10    1.90
  -5  -1  18    3.10    1.70
  -4  -1  18    3.40    1.60
  -3  -1  18    2.70    1.10
  -2  -1  18   12.70    2.70
  -1  -1  18    9.90    1.70
   0  -1  18    7.10    1.60
   1  -1  18    0.00    1.60
   2  -1  18   12.40    2.30
   3  -1  18   10.00    2.00
   4  -1  18    3.00    1.70
   5  -1  18    9.70    2.30
   6  -1  18    3.90    2.20
  -7   0  18   28.60    2.80
  -6   0  18    0.00    1.60
  -5   0  18   21.60    3.10
  -4   0  18    2.90    1.10
  -3   0  18   22.60    1.70
  -2   0  18    5.30    1.80
  -1   0  18    0.00    3.30
   0   0  18   23.80    2.50
   1   0  18   66.59    3.20
   2   0  18    2.80    1.60
   3   0  18    3.30    0.90
   4   0  18    8.40    1.30
   5   0  18    0.00    2.10
   6   0  18    4.50    2.50
  -7   1  18   11.10    2.20
  -6   1  18   15.90    2.00
  -5   1  18   10.70    1.80
  -4   1  18    3.30    1.40
  -3   1  18   23.50    1.80
  -2   1  18   25.20    3.30
  -1   1  18    4.30    1.60
   0   1  18    3.60    1.60
   1   1  18    8.20    1.90
   2   1  18    8.30    3.30
   3   1  18    3.50    1.00
   4   1  18   20.20    2.80
   5   1  18    5.90    1.80
   6   1  18    9.90    2.00
  -7   2  18    0.00    2.20
  -6   2  18    6.30    2.60
  -5   2  18    0.00    1.90
  -4   2  18   11.20    2.00
  -2   2  18    1.20    2.50
  -1   2  18   31.70    4.40
   0   2  18   12.90    2.20
   1   2  18   35.40    4.40
   2   2  18   24.40    2.50
   3   2  18    1.90    1.40
   4   2  18   21.80    3.70
   5   2  18    0.00    2.20
  -7   3  18   55.79    3.30
  -6   3  18   14.10    3.00
  -5   3  18   16.50    3.50
  -4   3  18    5.50    1.80
  -3   3  18    2.80   37.80
  -2   3  18    3.70    1.90
  -1   3  18    0.00    2.60
   0   3  18    3.50    1.80
   1   3  18    7.30    3.70
   2   3  18    1.10    1.70
   3   3  18    0.00    4.00
   4   3  18   14.20    2.30
   5   3  18    0.00    1.90
  -6   4  18    5.00    2.50
  -5   4  18   15.10    2.60
  -4   4  18    4.40    1.60
  -3   4  18   32.20    2.20
  -2   4  18   35.80    5.50
  -1   4  18    0.00    4.40
   0   4  18   75.59    4.40
   1   4  18   27.70    3.20
   2   4  18   81.29   11.00
   3   4  18    8.40    1.90
   4   4  18    2.70    1.40
   5   4  18   20.60    2.30
  -5   5  18   99.89    5.20
  -4   5  18    7.70    2.10
  -3   5  18   21.80    2.00
  -2   5  18    0.00    4.00
  -1   5  18   38.40    3.70
   0   5  18    2.40    0.90
   1   5  18    9.30    3.00
   2   5  18   11.00    4.90
   3   5  18  128.49    5.40
   4   5  18   13.70    1.90
  -4   6  18    8.60    1.90
  -3   6  18   93.19    3.90
  -2   6  18   11.50    3.00
  -1   6  18   12.50    2.40
   0   6  18    1.80    1.00
   1   6  18   65.59    4.00
   2   6  18    3.30    2.80
   3   6  18   19.60    1.60
  -3   7  18    4.50    1.60
  -2   7  18    3.00    0.90
  -1   7  18   11.40    2.10
   0   7  18    2.60    1.20
   1   7  18    3.60    2.20
  -3  -6  19    9.20    1.80
  -2  -6  19    0.00    7.80
  -1  -6  19   35.40    4.50
   0  -6  19    7.10    1.60
   1  -6  19   34.40    2.90
   2  -6  19   48.80    5.80
  -4  -5  19   35.50    2.60
  -3  -5  19  108.19    5.20
  -2  -5  19   23.20   15.90
  -1  -5  19    2.60    2.70
   0  -5  19    6.10    1.30
   1  -5  19    5.40    3.00
   2  -5  19    3.60    7.80
   3  -5  19    8.30    1.50
  -5  -4  19    8.20    2.60
  -4  -4  19    2.60    1.70
  -3  -4  19   10.90    2.40
  -2  -4  19   18.80    5.90
  -1  -4  19    6.80    3.00
   0  -4  19    4.00    1.80
   1  -4  19   12.10    3.30
   2  -4  19    4.20    3.10
   3  -4  19    4.70    2.40
  -5  -3  19   33.80    3.10
  -4  -3  19    0.00    1.90
  -3  -3  19   19.50    5.00
  -2  -3  19   12.90    3.40
  -1  -3  19   14.00    3.90
   0  -3  19    2.00    1.80
   1  -3  19    0.00    2.30
   2  -3  19   20.80    2.30
   3  -3  19   13.40    4.70
   4  -3  19    6.20    2.40
  -6  -2  19   15.70    2.20
  -5  -2  19   19.20    2.20
  -4  -2  19    5.70    2.90
  -2  -2  19   25.60    4.00
  -1  -2  19   27.70    4.90
   0  -2  19   18.10    2.30
   1  -2  19  108.69    4.60
   2  -2  19   37.40    3.90
   3  -2  19    4.40    4.70
   4  -2  19    9.60    2.90
  -6  -1  19    3.30    1.90
  -5  -1  19    0.80    2.00
  -4  -1  19   16.40    2.80
  -3  -1  19    5.30    1.60
  -2  -1  19    9.50    2.40
  -1  -1  19    3.60    1.80
   0  -1  19    5.40    1.60
   1  -1  19    2.40    1.60
   2  -1  19    7.10    2.00
   3  -1  19    3.20    1.70
   4  -1  19   25.40    1.80
  -6   0  19   40.00    2.40
  -5   0  19   25.40    2.10
  -4   0  19    8.50    1.40
  -3   0  19   18.50    1.70
  -2   0  19    6.90    1.80
  -1   0  19    0.00    2.40
   0   0  19   35.80    3.10
   1   0  19   31.80    2.30
   2   0  19    1.50    1.70
   3   0  19    1.40    1.10
   4   0  19    5.50    1.30
  -6   1  19   12.20    2.10
  -5   1  19    0.00    1.90
  -4   1  19    6.90    1.50
  -3   1  19   11.50    1.70
  -2   1  19    0.00    2.20
  -1   1  19    0.00    1.90
   0   1  19    3.10    1.50
   1   1  19    7.60    1.80
   2   1  19   15.30    2.50
   3   1  19    2.90    1.20
   4   1  19    7.30    1.30
  -5   2  19   18.70    2.70
  -4   2  19    1.20    1.40
  -2   2  19    4.90    4.60
  -1   2  19    0.00    3.40
   0   2  19   11.30    2.40
   1   2  19   33.40    4.70
   2   2  19   14.70    8.40
   3   2  19    1.70    1.70
   4   2  19    3.30    1.10
  -5   3  19    5.30    2.00
  -4   3  19    4.80    1.70
  -3   3  19    6.70    4.10
  -2   3  19    5.20    2.30
  -1   3  19    0.00    2.90
   0   3  19    0.00    2.30
   1   3  19   24.70    5.60
   2   3  19    6.70    3.30
   3   3  19    7.00    2.60
  -4   4  19   21.60    2.10
  -3   4  19    2.10    1.50
  -2   4  19    6.20    2.50
  -1   4  19   49.10    4.00
   0   4  19    2.70    1.50
   1   4  19   11.20    3.00
   2   4  19   12.80    2.10
  -3   5  19    4.50    1.50
  -2   5  19   26.50    2.10
  -1   5  19   18.40    3.20
   0   5  19   20.30    2.00
   1   5  19    4.60    1.90
  -1  -4  20   95.09    3.10
  -2  -3  20    7.30    1.70
  -1  -3  20   42.40    3.10
   0  -3  20    0.70    1.10
   1  -3  20   41.90    2.90
  -3  -2  20    7.40    1.50
  -2  -2  20   53.59    2.80
  -1  -2  20   44.20    4.00
   0  -2  20  107.49    6.30
   1  -2  20   38.50    3.40
  -3  -1  20    0.70    1.00
  -2  -1  20   12.70    2.20
  -1  -1  20   11.00    3.30
   0  -1  20   10.20    2.10
   1  -1  20   70.69    3.40
   2  -1  20   18.00    2.40
  -3   0  20    3.20    1.20
  -2   0  20   43.10    3.20
  -1   0  20   10.80    2.10
   0   0  20  173.08   12.90
   1   0  20    5.00    2.40
   2   0  20   36.30    4.90
  -3   1  20    2.60    1.20
  -2   1  20    5.30    1.70
  -1   1  20    0.00    3.10
   0   1  20    0.80    1.90
   1   1  20   31.20    3.50
  -2   2  20   14.50    2.10
  -1   2  20   18.30    2.70
   0   2  20   38.20    5.00
   0   0   0    0.00    0.00


_computing_structure_solution     'SHELXT 2018/2 (Sheldrick, 2018)'
_computing_structure_solution     'SHELXT 2018/2 (Sheldrick, 2018)'
;
_shelx_hkl_checksum              79412
_olex2_submission_special_instructions 'No special instructions were received'
_exptl_crystal_recrystallization_method 
'Re-crystallisation from solvent: DCM/pentane'
