 
data_21MCD022
 
_audit_creation_method            'SHELXL-2019/1'
_shelx_SHELXL_version_number      '2019/1'
_chemical_name_systematic         ?
_chemical_name_common             ?
_chemical_melting_point           ?
_chemical_formula_moiety          ?
_chemical_formula_sum
 'C16 H18 N2 O2' 
_chemical_formula_weight          270.32

loop_
 _atom_type_symbol
 _atom_type_description
 _atom_type_scat_dispersion_real
 _atom_type_scat_dispersion_imag
 _atom_type_scat_source
 'C'  'C'   0.0181   0.0091
 'International Tables Vol C Tables 4.2.6.8 and 6.1.1.4'
 'H'  'H'   0.0000   0.0000
 'International Tables Vol C Tables 4.2.6.8 and 6.1.1.4'
 'N'  'N'   0.0311   0.0180
 'International Tables Vol C Tables 4.2.6.8 and 6.1.1.4'
 'O'  'O'   0.0492   0.0322
 'International Tables Vol C Tables 4.2.6.8 and 6.1.1.4'
 
_space_group_crystal_system       monoclinic
_space_group_IT_number            14
_space_group_name_H-M_alt         'P 21/c'
_space_group_name_Hall            '-P 2ybc'
 
_shelx_space_group_comment
;
The symmetry employed for this shelxl refinement is uniquely defined
by the following loop, which should always be used as a source of
symmetry information in preference to the above space-group names.
They are only intended as comments.
;
 
loop_
 _space_group_symop_operation_xyz
 'x, y, z'
 '-x, y+1/2, -z+1/2'
 '-x, -y, -z'
 'x, -y-1/2, z-1/2'
 
_cell_length_a                    14.866(3)
_cell_length_b                    13.494(3)
_cell_length_c                    13.724(3)
_cell_angle_alpha                 90
_cell_angle_beta                  96.346(13)
_cell_angle_gamma                 90
_cell_volume                      2736.2(9)
_cell_formula_units_Z             8
_cell_measurement_temperature     100(2)
_cell_measurement_reflns_used     ?
_cell_measurement_theta_min       ?
_cell_measurement_theta_max       ?
 
_exptl_crystal_description        ?
_exptl_crystal_colour             ?
_exptl_crystal_density_meas       ?
_exptl_crystal_density_method     ?
_exptl_crystal_density_diffrn     1.312          
_exptl_crystal_F_000              1152
_exptl_transmission_factor_min    ?
_exptl_transmission_factor_max    ?
_exptl_crystal_size_max           0.078
_exptl_crystal_size_mid           0.056
_exptl_crystal_size_min           0.027
_exptl_absorpt_coefficient_mu     0.703
_shelx_estimated_absorpt_T_min    0.947
_shelx_estimated_absorpt_T_max    0.981
_exptl_absorpt_correction_type    ?
_exptl_absorpt_correction_T_min   ?
_exptl_absorpt_correction_T_max   ?
_exptl_absorpt_process_details    ?
_exptl_absorpt_special_details    ?
_diffrn_ambient_temperature       100(2)
_diffrn_radiation_wavelength      1.54178
_diffrn_radiation_type            CuK\a
_diffrn_source                    ?
_diffrn_measurement_device_type   ?
_diffrn_measurement_method        ?
_diffrn_detector_area_resol_mean  ?
_diffrn_reflns_number             11312
_diffrn_reflns_av_unetI/netI      0.1900
_diffrn_reflns_av_R_equivalents   0.2088
_diffrn_reflns_limit_h_min        -14
_diffrn_reflns_limit_h_max        14
_diffrn_reflns_limit_k_min        -12
_diffrn_reflns_limit_k_max        12
_diffrn_reflns_limit_l_min        -13
_diffrn_reflns_limit_l_max        13
_diffrn_reflns_theta_min          2.991
_diffrn_reflns_theta_max          47.221
_diffrn_reflns_theta_full         47.221
_diffrn_measured_fraction_theta_max   0.997
_diffrn_measured_fraction_theta_full  0.997
_diffrn_reflns_Laue_measured_fraction_max    0.997
_diffrn_reflns_Laue_measured_fraction_full   0.997
_diffrn_reflns_point_group_measured_fraction_max   0.997
_diffrn_reflns_point_group_measured_fraction_full  0.997
_reflns_number_total              2468
_reflns_number_gt                 1265
_reflns_threshold_expression      'I > 2\s(I)'
_reflns_Friedel_coverage          0.000
_reflns_Friedel_fraction_max      .
_reflns_Friedel_fraction_full     .
 
_reflns_special_details
;
 Reflections were merged by SHELXL according to the crystal
 class for the calculation of statistics and refinement.
 
 _reflns_Friedel_fraction is defined as the number of unique
 Friedel pairs measured divided by the number that would be
 possible theoretically, ignoring centric projections and
 systematic absences.
;
 
_computing_data_collection        ?
_computing_cell_refinement        ?
_computing_data_reduction         ?
_computing_structure_solution     ?
_computing_structure_refinement 'SHELXL-2019/1 (Sheldrick, 2019)'
_computing_molecular_graphics     ?
_computing_publication_material   ?
_refine_special_details           ?
_refine_ls_structure_factor_coef  Fsqd
_refine_ls_matrix_type            full
_refine_ls_weighting_scheme       calc
_refine_ls_weighting_details
'w=1/[\s^2^(Fo^2^)+(0.1690P)^2^] where P=(Fo^2^+2Fc^2^)/3'
_atom_sites_solution_primary      ?
_atom_sites_solution_secondary    ?
_atom_sites_solution_hydrogens    geom
_refine_ls_hydrogen_treatment     constr
_refine_ls_extinction_method      'SHELXL-2019/1 (Sheldrick 2019)'
_refine_ls_extinction_coef        0.0001(3)
_refine_ls_extinction_expression
 'Fc^*^=kFc[1+0.001xFc^2^\l^3^/sin(2\q)]^-1/4^'
_refine_ls_number_reflns          2468
_refine_ls_number_parameters      368
_refine_ls_number_restraints      324
_refine_ls_R_factor_all           0.1829
_refine_ls_R_factor_gt            0.1050
_refine_ls_wR_factor_ref          0.3191
_refine_ls_wR_factor_gt           0.2623
_refine_ls_goodness_of_fit_ref    1.013
_refine_ls_restrained_S_all       0.958
_refine_ls_shift/su_max           0.000
_refine_ls_shift/su_mean          0.000
 
loop_
 _atom_site_label
 _atom_site_type_symbol
 _atom_site_fract_x
 _atom_site_fract_y
 _atom_site_fract_z
 _atom_site_U_iso_or_equiv
 _atom_site_adp_type
 _atom_site_occupancy
 _atom_site_site_symmetry_order  
 _atom_site_calc_flag
 _atom_site_refinement_flags_posn
 _atom_site_refinement_flags_adp
 _atom_site_refinement_flags_occupancy
 _atom_site_disorder_assembly
 _atom_site_disorder_group
N1 N 0.3647(6) 0.2274(6) 0.3616(6) 0.063(2) Uani 1 1 d . . . . .
C2 C 0.3364(7) 0.1743(8) 0.4378(8) 0.072(3) Uani 1 1 d . . . . .
H2 H 0.354051 0.184380 0.505748 0.087 Uiso 1 1 calc R U . . .
C3 C 0.2782(8) 0.1045(8) 0.3967(8) 0.074(3) Uani 1 1 d . . . . .
H3 H 0.247584 0.056913 0.431986 0.089 Uiso 1 1 calc R U . . .
C4 C 0.2701(7) 0.1136(8) 0.2926(7) 0.062(3) Uani 1 1 d . . . . .
C5 C 0.3264(7) 0.1909(8) 0.2741(7) 0.062(3) Uani 1 1 d . . . . .
C6 C 0.3636(8) 0.2466(8) 0.1920(8) 0.070(3) Uani 1 1 d . . . . .
H6 H 0.315980 0.289156 0.155909 0.084 Uiso 1 1 calc R U . . .
C7 C 0.4374(7) 0.3096(7) 0.2477(7) 0.062(3) Uani 1 1 d . . . . .
C8 C 0.4978(7) 0.3739(8) 0.2170(9) 0.071(3) Uani 1 1 d . . . . .
H8 H 0.500343 0.382961 0.148720 0.086 Uiso 1 1 calc R U . . .
C9 C 0.5555(8) 0.4264(8) 0.2828(8) 0.076(3) Uani 1 1 d . . . . .
H9 H 0.600097 0.468746 0.260681 0.091 Uiso 1 1 calc R U . . .
C10 C 0.5477(8) 0.4164(8) 0.3846(8) 0.073(3) Uani 1 1 d . . . . .
H10 H 0.585654 0.454496 0.430553 0.088 Uiso 1 1 calc R U . . .
C11 C 0.4864(7) 0.3530(8) 0.4171(8) 0.068(3) Uani 1 1 d . . . . .
H11 H 0.481944 0.346066 0.485320 0.081 Uiso 1 1 calc R U . . .
C12 C 0.4311(7) 0.2990(8) 0.3499(8) 0.064(3) Uani 1 1 d . . . . .
O13 O 0.4023(5) 0.1808(5) 0.1267(5) 0.073(2) Uani 1 1 d . . . . .
H13 H 0.366162 0.133972 0.111488 0.087 Uiso 1 1 calc R U . . .
C14 C 0.2243(8) 0.0579(8) 0.2092(8) 0.066(3) Uani 1 1 d . . . . .
O15 O 0.2471(5) 0.0749(5) 0.1239(5) 0.078(2) Uani 1 1 d . . . . .
N16 N 0.1606(6) -0.0122(7) 0.2171(6) 0.072(2) Uani 1 1 d . . . . .
C17 C 0.1223(8) -0.0663(8) 0.1281(8) 0.079(3) Uani 1 1 d . . . . .
H17A H 0.113322 -0.019680 0.072183 0.095 Uiso 1 1 calc R U . . .
H17B H 0.062522 -0.093998 0.138914 0.095 Uiso 1 1 calc R U . . .
C18 C 0.1843(8) -0.1490(8) 0.1041(8) 0.083(3) Uani 1 1 d . . . . .
H18A H 0.157048 -0.184530 0.045891 0.124 Uiso 1 1 calc R U . . .
H18B H 0.193400 -0.194919 0.159611 0.124 Uiso 1 1 calc R U . . .
H18C H 0.242732 -0.121294 0.091112 0.124 Uiso 1 1 calc R U . . .
C19 C 0.1228(8) -0.0356(8) 0.3095(7) 0.073(3) Uani 1 1 d . . . . .
H19A H 0.057622 -0.050973 0.294890 0.088 Uiso 1 1 calc R U . . .
H19B H 0.128512 0.023302 0.352762 0.088 Uiso 1 1 calc R U . . .
C20 C 0.1705(8) -0.1234(8) 0.3636(8) 0.082(3) Uani 1 1 d . . . . .
H20A H 0.163989 -0.182351 0.321651 0.122 Uiso 1 1 calc R U . . .
H20B H 0.143228 -0.136086 0.424181 0.122 Uiso 1 1 calc R U . . .
H20C H 0.234904 -0.108078 0.379495 0.122 Uiso 1 1 calc R U . . .
N21 N 0.1369(6) 0.3336(6) 0.3122(6) 0.068(2) Uani 1 1 d . . . . .
C22 C 0.1793(7) 0.3797(7) 0.3954(8) 0.065(3) Uani 1 1 d . . . . .
H22 H 0.171264 0.364506 0.461505 0.077 Uiso 1 1 calc R U . . .
C23 C 0.2342(8) 0.4505(8) 0.3647(8) 0.071(3) Uani 1 1 d . . . . .
H23 H 0.271731 0.493250 0.406492 0.085 Uiso 1 1 calc R U . . .
C24 C 0.2273(7) 0.4515(8) 0.2595(7) 0.061(3) Uani 1 1 d . . . . .
C25 C 0.1650(7) 0.3764(8) 0.2308(8) 0.065(3) Uani 1 1 d . . . . .
C26 C 0.1194(8) 0.3255(8) 0.1380(8) 0.075(3) Uani 1 1 d . . . . .
H26 H 0.165353 0.289961 0.103054 0.089 Uiso 1 1 calc R U . . .
C27 C 0.0597(7) 0.2524(8) 0.1834(8) 0.068(3) Uani 1 1 d . . . . .
C28 C -0.0029(7) 0.1862(8) 0.1417(9) 0.072(3) Uani 1 1 d . . . . .
H28 H -0.012412 0.180922 0.072308 0.087 Uiso 1 1 calc R U . . .
C29 C -0.0525(8) 0.1271(8) 0.1976(10) 0.082(3) Uani 1 1 d . . . . .
H29 H -0.094940 0.080805 0.167377 0.098 Uiso 1 1 calc R U . . .
C30 C -0.0395(8) 0.1364(8) 0.3002(9) 0.080(3) Uani 1 1 d . . . . .
H30 H -0.073889 0.096379 0.339392 0.095 Uiso 1 1 calc R U . . .
C31 C 0.0232(8) 0.2034(8) 0.3454(9) 0.076(3) Uani 1 1 d . . . . .
H31 H 0.032087 0.209380 0.414755 0.091 Uiso 1 1 calc R U . . .
C32 C 0.0718(7) 0.2605(8) 0.2870(8) 0.064(3) Uani 1 1 d . . . . .
O33 O 0.0692(5) 0.3899(6) 0.0747(6) 0.090(2) Uani 1 1 d . . . . .
H33 H 0.102746 0.435851 0.058597 0.108 Uiso 1 1 calc R U . . .
C34 C 0.2603(8) 0.5140(8) 0.1849(9) 0.069(3) Uani 1 1 d . . . . .
O35 O 0.2245(5) 0.5015(5) 0.0966(5) 0.079(2) Uani 1 1 d . . . . .
N36 N 0.3247(6) 0.5816(6) 0.2025(6) 0.071(2) Uani 1 1 d . . . . .
C37 C 0.3504(8) 0.6443(8) 0.1222(8) 0.077(3) Uani 1 1 d . . . . .
H37A H 0.372228 0.709137 0.149139 0.092 Uiso 1 1 calc R U . . .
H37B H 0.296439 0.656514 0.074661 0.092 Uiso 1 1 calc R U . . .
C38 C 0.4253(8) 0.5955(8) 0.0685(8) 0.080(3) Uani 1 1 d . . . . .
H38A H 0.401908 0.534405 0.036528 0.120 Uiso 1 1 calc R U . . .
H38B H 0.477511 0.579948 0.116060 0.120 Uiso 1 1 calc R U . . .
H38C H 0.443832 0.641344 0.019084 0.120 Uiso 1 1 calc R U . . .
C39 C 0.3775(8) 0.5981(8) 0.3001(8) 0.075(3) Uani 1 1 d . . . . .
H39A H 0.440554 0.616284 0.291150 0.089 Uiso 1 1 calc R U . . .
H39B H 0.378947 0.536225 0.339058 0.089 Uiso 1 1 calc R U . . .
C40 C 0.3341(8) 0.6810(8) 0.3550(8) 0.078(3) Uani 1 1 d . . . . .
H40A H 0.334652 0.742633 0.317344 0.118 Uiso 1 1 calc R U . . .
H40B H 0.368452 0.690310 0.419505 0.118 Uiso 1 1 calc R U . . .
H40C H 0.271556 0.663021 0.363230 0.118 Uiso 1 1 calc R U . . .
 
loop_
 _atom_site_aniso_label
 _atom_site_aniso_U_11
 _atom_site_aniso_U_22
 _atom_site_aniso_U_33
 _atom_site_aniso_U_23
 _atom_site_aniso_U_13
 _atom_site_aniso_U_12
N1 0.063(5) 0.071(5) 0.056(4) -0.004(3) 0.014(4) 0.007(4)
C2 0.081(7) 0.077(6) 0.058(5) 0.005(4) 0.007(4) 0.002(5)
C3 0.082(7) 0.080(7) 0.061(5) 0.002(4) 0.014(5) -0.003(6)
C4 0.061(6) 0.071(6) 0.053(5) 0.001(4) 0.009(4) 0.004(5)
C5 0.056(6) 0.073(5) 0.057(5) -0.003(4) 0.012(4) 0.007(4)
C6 0.079(6) 0.070(6) 0.063(5) -0.007(4) 0.018(4) -0.006(5)
C7 0.065(6) 0.060(5) 0.063(5) -0.006(4) 0.015(4) 0.002(4)
C8 0.068(7) 0.069(6) 0.077(6) 0.003(5) 0.013(5) -0.002(5)
C9 0.072(7) 0.074(7) 0.083(6) -0.001(5) 0.008(5) 0.002(6)
C10 0.074(7) 0.066(7) 0.079(6) -0.003(5) 0.008(5) -0.003(5)
C11 0.070(7) 0.066(6) 0.067(6) -0.009(4) 0.009(4) 0.002(5)
C12 0.062(6) 0.067(6) 0.064(5) -0.009(4) 0.014(4) 0.005(5)
O13 0.085(5) 0.073(5) 0.063(4) -0.007(3) 0.019(4) -0.004(4)
C14 0.070(6) 0.068(6) 0.058(5) 0.003(4) 0.002(4) 0.012(5)
O15 0.090(6) 0.085(5) 0.056(4) 0.005(3) 0.004(4) 0.000(4)
N16 0.081(6) 0.082(5) 0.053(5) 0.003(4) 0.010(4) 0.003(4)
C17 0.084(7) 0.088(7) 0.067(6) -0.004(5) 0.014(5) -0.004(6)
C18 0.090(9) 0.088(7) 0.072(8) -0.010(6) 0.019(6) 0.001(6)
C19 0.076(7) 0.082(7) 0.061(6) 0.006(5) 0.012(5) 0.012(6)
C20 0.098(9) 0.082(7) 0.067(7) 0.004(5) 0.015(6) 0.010(6)
N21 0.070(5) 0.068(5) 0.067(5) -0.001(4) 0.012(4) -0.001(4)
C22 0.071(7) 0.062(6) 0.060(5) -0.004(4) 0.007(4) 0.012(5)
C23 0.076(7) 0.070(6) 0.066(5) 0.000(4) 0.004(5) 0.004(5)
C24 0.052(6) 0.067(5) 0.063(5) 0.000(4) 0.007(4) 0.005(4)
C25 0.059(6) 0.068(5) 0.067(5) -0.002(4) 0.011(4) 0.005(4)
C26 0.071(6) 0.069(6) 0.082(6) 0.005(4) 0.003(4) -0.007(5)
C27 0.063(6) 0.062(5) 0.080(5) 0.005(4) 0.010(4) 0.003(5)
C28 0.056(6) 0.072(6) 0.090(7) -0.001(5) 0.010(5) 0.003(5)
C29 0.072(7) 0.068(7) 0.106(7) 0.009(5) 0.011(5) 0.006(6)
C30 0.066(7) 0.069(7) 0.105(7) 0.016(5) 0.018(5) 0.002(5)
C31 0.069(7) 0.070(6) 0.091(6) 0.011(5) 0.026(5) 0.002(5)
C32 0.053(6) 0.063(5) 0.078(5) 0.004(4) 0.013(4) 0.005(4)
O33 0.103(6) 0.079(5) 0.089(5) 0.009(4) 0.010(4) -0.004(4)
C34 0.080(7) 0.065(6) 0.064(5) -0.007(4) 0.019(4) 0.000(5)
O35 0.096(6) 0.083(5) 0.061(4) -0.006(3) 0.017(4) -0.002(4)
N36 0.085(6) 0.071(5) 0.059(5) -0.003(4) 0.017(4) -0.009(4)
C37 0.086(7) 0.073(6) 0.072(6) 0.002(5) 0.014(5) -0.001(6)
C38 0.089(8) 0.073(7) 0.080(8) 0.001(5) 0.024(6) 0.000(6)
C39 0.090(7) 0.071(6) 0.063(6) -0.007(4) 0.011(5) -0.004(6)
C40 0.091(9) 0.076(7) 0.068(7) -0.010(5) 0.010(6) -0.005(6)
 
_geom_special_details
;
 All esds (except the esd in the dihedral angle between two l.s. planes)
 are estimated using the full covariance matrix.  The cell esds are taken
 into account individually in the estimation of esds in distances, angles
 and torsion angles; correlations between esds in cell parameters are only
 used when they are defined by crystal symmetry.  An approximate (isotropic)
 treatment of cell esds is used for estimating esds involving l.s. planes.
;
 
loop_
 _geom_bond_atom_site_label_1
 _geom_bond_atom_site_label_2
 _geom_bond_distance
 _geom_bond_site_symmetry_2
 _geom_bond_publ_flag
N1 C5 1.363(12) . ?
N1 C2 1.372(12) . ?
N1 C12 1.402(12) . ?
C2 C3 1.359(14) . ?
C2 H2 0.9500 . ?
C3 C4 1.427(14) . ?
C3 H3 0.9500 . ?
C4 C5 1.379(13) . ?
C4 C14 1.471(14) . ?
C5 C6 1.508(14) . ?
C6 O13 1.427(11) . ?
C6 C7 1.525(14) . ?
C6 H6 1.0000 . ?
C7 C8 1.349(13) . ?
C7 C12 1.424(13) . ?
C8 C9 1.373(14) . ?
C8 H8 0.9500 . ?
C9 C10 1.421(14) . ?
C9 H9 0.9500 . ?
C10 C11 1.360(14) . ?
C10 H10 0.9500 . ?
C11 C12 1.375(13) . ?
C11 H11 0.9500 . ?
O13 H13 0.8400 . ?
C14 O15 1.274(12) . ?
C14 N16 1.351(13) . ?
N16 C19 1.477(12) . ?
N16 C17 1.481(13) . ?
C17 C18 1.507(14) . ?
C17 H17A 0.9900 . ?
C17 H17B 0.9900 . ?
C18 H18A 0.9800 . ?
C18 H18B 0.9800 . ?
C18 H18C 0.9800 . ?
C19 C20 1.530(14) . ?
C19 H19A 0.9900 . ?
C19 H19B 0.9900 . ?
C20 H20A 0.9800 . ?
C20 H20B 0.9800 . ?
C20 H20C 0.9800 . ?
N21 C25 1.362(12) . ?
N21 C22 1.390(12) . ?
N21 C32 1.398(12) . ?
C22 C23 1.354(13) . ?
C22 H22 0.9500 . ?
C23 C24 1.435(13) . ?
C23 H23 0.9500 . ?
C24 C25 1.401(14) . ?
C24 C34 1.452(14) . ?
C25 C26 1.538(14) . ?
C26 O33 1.387(12) . ?
C26 C27 1.507(14) . ?
C26 H26 1.0000 . ?
C27 C28 1.368(14) . ?
C27 C32 1.418(14) . ?
C28 C29 1.376(14) . ?
C28 H28 0.9500 . ?
C29 C30 1.406(15) . ?
C29 H29 0.9500 . ?
C30 C31 1.393(15) . ?
C30 H30 0.9500 . ?
C31 C32 1.374(14) . ?
C31 H31 0.9500 . ?
O33 H33 0.8400 . ?
C34 O35 1.280(12) . ?
C34 N36 1.325(13) . ?
N36 C37 1.473(13) . ?
N36 C39 1.493(13) . ?
C37 C38 1.548(14) . ?
C37 H37A 0.9900 . ?
C37 H37B 0.9900 . ?
C38 H38A 0.9800 . ?
C38 H38B 0.9800 . ?
C38 H38C 0.9800 . ?
C39 C40 1.529(14) . ?
C39 H39A 0.9900 . ?
C39 H39B 0.9900 . ?
C40 H40A 0.9800 . ?
C40 H40B 0.9800 . ?
C40 H40C 0.9800 . ?
 
loop_
 _geom_angle_atom_site_label_1
 _geom_angle_atom_site_label_2
 _geom_angle_atom_site_label_3
 _geom_angle
 _geom_angle_site_symmetry_1
 _geom_angle_site_symmetry_3
 _geom_angle_publ_flag
C5 N1 C2 110.4(9) . . ?
C5 N1 C12 112.3(8) . . ?
C2 N1 C12 136.5(9) . . ?
C3 C2 N1 106.3(10) . . ?
C3 C2 H2 126.8 . . ?
N1 C2 H2 126.8 . . ?
C2 C3 C4 109.6(10) . . ?
C2 C3 H3 125.2 . . ?
C4 C3 H3 125.2 . . ?
C5 C4 C3 105.3(9) . . ?
C5 C4 C14 118.8(10) . . ?
C3 C4 C14 135.7(10) . . ?
N1 C5 C4 108.4(9) . . ?
N1 C5 C6 109.0(9) . . ?
C4 C5 C6 142.6(10) . . ?
O13 C6 C5 111.4(9) . . ?
O13 C6 C7 110.1(8) . . ?
C5 C6 C7 101.9(8) . . ?
O13 C6 H6 111.0 . . ?
C5 C6 H6 111.0 . . ?
C7 C6 H6 111.0 . . ?
C8 C7 C12 119.4(10) . . ?
C8 C7 C6 132.0(10) . . ?
C12 C7 C6 108.4(9) . . ?
C7 C8 C9 121.1(11) . . ?
C7 C8 H8 119.5 . . ?
C9 C8 H8 119.5 . . ?
C8 C9 C10 119.0(11) . . ?
C8 C9 H9 120.5 . . ?
C10 C9 H9 120.5 . . ?
C11 C10 C9 120.9(11) . . ?
C11 C10 H10 119.6 . . ?
C9 C10 H10 119.6 . . ?
C10 C11 C12 119.0(11) . . ?
C10 C11 H11 120.5 . . ?
C12 C11 H11 120.5 . . ?
C11 C12 N1 131.6(10) . . ?
C11 C12 C7 120.6(11) . . ?
N1 C12 C7 107.8(9) . . ?
C6 O13 H13 109.5 . . ?
O15 C14 N16 117.3(9) . . ?
O15 C14 C4 118.4(11) . . ?
N16 C14 C4 124.2(10) . . ?
C14 N16 C19 123.7(9) . . ?
C14 N16 C17 119.2(9) . . ?
C19 N16 C17 117.0(9) . . ?
N16 C17 C18 110.9(9) . . ?
N16 C17 H17A 109.5 . . ?
C18 C17 H17A 109.5 . . ?
N16 C17 H17B 109.5 . . ?
C18 C17 H17B 109.5 . . ?
H17A C17 H17B 108.1 . . ?
C17 C18 H18A 109.5 . . ?
C17 C18 H18B 109.5 . . ?
H18A C18 H18B 109.5 . . ?
C17 C18 H18C 109.5 . . ?
H18A C18 H18C 109.5 . . ?
H18B C18 H18C 109.5 . . ?
N16 C19 C20 112.5(9) . . ?
N16 C19 H19A 109.1 . . ?
C20 C19 H19A 109.1 . . ?
N16 C19 H19B 109.1 . . ?
C20 C19 H19B 109.1 . . ?
H19A C19 H19B 107.8 . . ?
C19 C20 H20A 109.5 . . ?
C19 C20 H20B 109.5 . . ?
H20A C20 H20B 109.5 . . ?
C19 C20 H20C 109.5 . . ?
H20A C20 H20C 109.5 . . ?
H20B C20 H20C 109.5 . . ?
C25 N21 C22 109.4(9) . . ?
C25 N21 C32 111.3(9) . . ?
C22 N21 C32 139.2(10) . . ?
C23 C22 N21 107.1(10) . . ?
C23 C22 H22 126.5 . . ?
N21 C22 H22 126.5 . . ?
C22 C23 C24 110.0(10) . . ?
C22 C23 H23 125.0 . . ?
C24 C23 H23 125.0 . . ?
C25 C24 C23 104.3(9) . . ?
C25 C24 C34 119.1(10) . . ?
C23 C24 C34 136.3(10) . . ?
N21 C25 C24 109.3(9) . . ?
N21 C25 C26 110.0(10) . . ?
C24 C25 C26 140.7(10) . . ?
O33 C26 C27 111.7(9) . . ?
O33 C26 C25 113.4(9) . . ?
C27 C26 C25 100.1(9) . . ?
O33 C26 H26 110.4 . . ?
C27 C26 H26 110.4 . . ?
C25 C26 H26 110.4 . . ?
C28 C27 C32 118.4(10) . . ?
C28 C27 C26 131.2(11) . . ?
C32 C27 C26 110.4(9) . . ?
C27 C28 C29 121.8(12) . . ?
C27 C28 H28 119.1 . . ?
C29 C28 H28 119.1 . . ?
C28 C29 C30 119.0(12) . . ?
C28 C29 H29 120.5 . . ?
C30 C29 H29 120.5 . . ?
C31 C30 C29 121.0(11) . . ?
C31 C30 H30 119.5 . . ?
C29 C30 H30 119.5 . . ?
C32 C31 C30 118.3(12) . . ?
C32 C31 H31 120.9 . . ?
C30 C31 H31 120.9 . . ?
C31 C32 N21 130.3(11) . . ?
C31 C32 C27 121.6(11) . . ?
N21 C32 C27 108.1(9) . . ?
C26 O33 H33 109.5 . . ?
O35 C34 N36 118.6(10) . . ?
O35 C34 C24 117.0(10) . . ?
N36 C34 C24 124.4(11) . . ?
C34 N36 C37 120.1(9) . . ?
C34 N36 C39 124.3(9) . . ?
C37 N36 C39 115.5(9) . . ?
N36 C37 C38 111.8(9) . . ?
N36 C37 H37A 109.3 . . ?
C38 C37 H37A 109.3 . . ?
N36 C37 H37B 109.3 . . ?
C38 C37 H37B 109.3 . . ?
H37A C37 H37B 107.9 . . ?
C37 C38 H38A 109.5 . . ?
C37 C38 H38B 109.5 . . ?
H38A C38 H38B 109.5 . . ?
C37 C38 H38C 109.5 . . ?
H38A C38 H38C 109.5 . . ?
H38B C38 H38C 109.5 . . ?
N36 C39 C40 110.0(9) . . ?
N36 C39 H39A 109.7 . . ?
C40 C39 H39A 109.7 . . ?
N36 C39 H39B 109.7 . . ?
C40 C39 H39B 109.7 . . ?
H39A C39 H39B 108.2 . . ?
C39 C40 H40A 109.5 . . ?
C39 C40 H40B 109.5 . . ?
H40A C40 H40B 109.5 . . ?
C39 C40 H40C 109.5 . . ?
H40A C40 H40C 109.5 . . ?
H40B C40 H40C 109.5 . . ?
 
loop_
 _geom_torsion_atom_site_label_1
 _geom_torsion_atom_site_label_2
 _geom_torsion_atom_site_label_3
 _geom_torsion_atom_site_label_4
 _geom_torsion
 _geom_torsion_site_symmetry_1
 _geom_torsion_site_symmetry_2
 _geom_torsion_site_symmetry_3
 _geom_torsion_site_symmetry_4
 _geom_torsion_publ_flag
C5 N1 C2 C3 -1.0(11) . . . . ?
C12 N1 C2 C3 -169.9(10) . . . . ?
N1 C2 C3 C4 0.3(12) . . . . ?
C2 C3 C4 C5 0.5(12) . . . . ?
C2 C3 C4 C14 174.9(11) . . . . ?
C2 N1 C5 C4 1.4(11) . . . . ?
C12 N1 C5 C4 173.1(8) . . . . ?
C2 N1 C5 C6 -176.3(8) . . . . ?
C12 N1 C5 C6 -4.6(11) . . . . ?
C3 C4 C5 N1 -1.1(11) . . . . ?
C14 C4 C5 N1 -176.6(9) . . . . ?
C3 C4 C5 C6 175.3(13) . . . . ?
C14 C4 C5 C6 -0.2(19) . . . . ?
N1 C5 C6 O13 124.7(9) . . . . ?
C4 C5 C6 O13 -51.7(18) . . . . ?
N1 C5 C6 C7 7.3(11) . . . . ?
C4 C5 C6 C7 -169.2(13) . . . . ?
O13 C6 C7 C8 59.5(15) . . . . ?
C5 C6 C7 C8 177.9(10) . . . . ?
O13 C6 C7 C12 -125.9(9) . . . . ?
C5 C6 C7 C12 -7.5(10) . . . . ?
C12 C7 C8 C9 2.5(15) . . . . ?
C6 C7 C8 C9 176.6(11) . . . . ?
C7 C8 C9 C10 -3.5(16) . . . . ?
C8 C9 C10 C11 2.6(15) . . . . ?
C9 C10 C11 C12 -0.7(15) . . . . ?
C10 C11 C12 N1 178.1(10) . . . . ?
C10 C11 C12 C7 -0.3(15) . . . . ?
C5 N1 C12 C11 -179.1(10) . . . . ?
C2 N1 C12 C11 -10.3(18) . . . . ?
C5 N1 C12 C7 -0.5(11) . . . . ?
C2 N1 C12 C7 168.3(10) . . . . ?
C8 C7 C12 C11 -0.5(14) . . . . ?
C6 C7 C12 C11 -175.9(9) . . . . ?
C8 C7 C12 N1 -179.3(9) . . . . ?
C6 C7 C12 N1 5.3(11) . . . . ?
C5 C4 C14 O15 8.7(14) . . . . ?
C3 C4 C14 O15 -165.1(11) . . . . ?
C5 C4 C14 N16 -172.9(9) . . . . ?
C3 C4 C14 N16 13.3(19) . . . . ?
O15 C14 N16 C19 -175.8(9) . . . . ?
C4 C14 N16 C19 5.7(15) . . . . ?
O15 C14 N16 C17 1.1(14) . . . . ?
C4 C14 N16 C17 -177.4(10) . . . . ?
C14 N16 C17 C18 81.3(12) . . . . ?
C19 N16 C17 C18 -101.6(11) . . . . ?
C14 N16 C19 C20 -95.8(12) . . . . ?
C17 N16 C19 C20 87.2(11) . . . . ?
C25 N21 C22 C23 -0.6(11) . . . . ?
C32 N21 C22 C23 -176.6(11) . . . . ?
N21 C22 C23 C24 0.5(11) . . . . ?
C22 C23 C24 C25 -0.2(11) . . . . ?
C22 C23 C24 C34 172.4(11) . . . . ?
C22 N21 C25 C24 0.5(11) . . . . ?
C32 N21 C25 C24 177.7(8) . . . . ?
C22 N21 C25 C26 179.5(8) . . . . ?
C32 N21 C25 C26 -3.3(11) . . . . ?
C23 C24 C25 N21 -0.2(11) . . . . ?
C34 C24 C25 N21 -174.3(9) . . . . ?
C23 C24 C25 C26 -178.7(13) . . . . ?
C34 C24 C25 C26 7(2) . . . . ?
N21 C25 C26 O33 121.5(10) . . . . ?
C24 C25 C26 O33 -59.9(19) . . . . ?
N21 C25 C26 C27 2.5(11) . . . . ?
C24 C25 C26 C27 -179.0(13) . . . . ?
O33 C26 C27 C28 56.1(15) . . . . ?
C25 C26 C27 C28 176.4(11) . . . . ?
O33 C26 C27 C32 -121.2(10) . . . . ?
C25 C26 C27 C32 -0.9(11) . . . . ?
C32 C27 C28 C29 -1.1(15) . . . . ?
C26 C27 C28 C29 -178.2(10) . . . . ?
C27 C28 C29 C30 1.1(16) . . . . ?
C28 C29 C30 C31 -0.7(16) . . . . ?
C29 C30 C31 C32 0.2(15) . . . . ?
C30 C31 C32 N21 178.8(10) . . . . ?
C30 C31 C32 C27 -0.2(15) . . . . ?
C25 N21 C32 C31 -176.5(10) . . . . ?
C22 N21 C32 C31 -0.5(19) . . . . ?
C25 N21 C32 C27 2.6(11) . . . . ?
C22 N21 C32 C27 178.6(11) . . . . ?
C28 C27 C32 C31 0.6(15) . . . . ?
C26 C27 C32 C31 178.3(9) . . . . ?
C28 C27 C32 N21 -178.6(9) . . . . ?
C26 C27 C32 N21 -0.9(11) . . . . ?
C25 C24 C34 O35 5.4(14) . . . . ?
C23 C24 C34 O35 -166.3(11) . . . . ?
C25 C24 C34 N36 -174.1(10) . . . . ?
C23 C24 C34 N36 14.1(19) . . . . ?
O35 C34 N36 C37 3.3(14) . . . . ?
C24 C34 N36 C37 -177.2(9) . . . . ?
O35 C34 N36 C39 -174.7(9) . . . . ?
C24 C34 N36 C39 4.9(16) . . . . ?
C34 N36 C37 C38 -88.4(12) . . . . ?
C39 N36 C37 C38 89.7(11) . . . . ?
C34 N36 C39 C40 -94.8(11) . . . . ?
C37 N36 C39 C40 87.2(11) . . . . ?
 
loop_
 _geom_hbond_atom_site_label_D 
 _geom_hbond_atom_site_label_H 
 _geom_hbond_atom_site_label_A 
 _geom_hbond_distance_DH 
 _geom_hbond_distance_HA 
 _geom_hbond_distance_DA 
 _geom_hbond_angle_DHA 
 _geom_hbond_site_symmetry_A 
 _geom_hbond_publ_flag
O13 H13 O15  0.84 1.97 2.710(10) 147.1 . yes
O33 H33 O35  0.84 2.03 2.745(11) 142.4 . yes
 
_refine_diff_density_max    0.359
_refine_diff_density_min   -0.314
_refine_diff_density_rms    0.067

_shelx_res_file
;
TITL 21MCD022 in P2(1)/c
    21MCD022.res
    created by SHELXL-2019/1 at 17:29:39 on 17-Dec-2021
CELL 1.54178  14.86600  13.49390  13.72420  90.0000  96.3461  90.0000
ZERR    8.00   0.00280   0.00260   0.00250   0.0000   0.0126   0.0000
LATT 1
SYMM -x, y+1/2, -z+1/2
SFAC C H N O
UNIT 128 144 16 16
LIST 4 ! automatically inserted. Change 6 to 4 for CHECKCIF!!
TEMP -173.150
SIZE 0.027 0.056 0.078
ACTA
WPDB -2
RIGU
L.S. 14
FMAP 2
PLAN 20
HTAB
REM Instructions for potential hydrogen bonds
HTAB O13 O15
HTAB O33 O35
BOND $H
CONF
WGHT    0.169000
EXTI    0.000144
FVAR       0.10130
N1    3    0.364745    0.227436    0.361586    11.00000    0.06267    0.07109 =
         0.05617   -0.00371    0.01351    0.00741
C2    1    0.336448    0.174345    0.437800    11.00000    0.08114    0.07711 =
         0.05839    0.00493    0.00681    0.00172
AFIX  43
H2    2    0.354051    0.184380    0.505748    11.00000   -1.20000
AFIX   0
C3    1    0.278194    0.104507    0.396718    11.00000    0.08246    0.08008 =
         0.06076    0.00174    0.01438   -0.00305
AFIX  43
H3    2    0.247584    0.056913    0.431986    11.00000   -1.20000
AFIX   0
C4    1    0.270052    0.113607    0.292555    11.00000    0.06133    0.07125 =
         0.05334    0.00120    0.00897    0.00444
C5    1    0.326416    0.190914    0.274100    11.00000    0.05633    0.07273 =
         0.05726   -0.00315    0.01241    0.00682
C6    1    0.363606    0.246556    0.192041    11.00000    0.07898    0.06956 =
         0.06303   -0.00717    0.01771   -0.00571
AFIX  13
H6    2    0.315980    0.289156    0.155909    11.00000   -1.20000
AFIX   0
C7    1    0.437395    0.309577    0.247686    11.00000    0.06475    0.05995 =
         0.06287   -0.00613    0.01467    0.00227
C8    1    0.497762    0.373868    0.216996    11.00000    0.06840    0.06947 =
         0.07710    0.00314    0.01282   -0.00220
AFIX  43
H8    2    0.500343    0.382961    0.148720    11.00000   -1.20000
AFIX   0
C9    1    0.555537    0.426379    0.282824    11.00000    0.07151    0.07418 =
         0.08255   -0.00075    0.00800    0.00222
AFIX  43
H9    2    0.600097    0.468746    0.260681    11.00000   -1.20000
AFIX   0
C10   1    0.547652    0.416376    0.384614    11.00000    0.07416    0.06633 =
         0.07924   -0.00301    0.00796   -0.00310
AFIX  43
H10   2    0.585654    0.454496    0.430553    11.00000   -1.20000
AFIX   0
C11   1    0.486426    0.352956    0.417138    11.00000    0.07036    0.06572 =
         0.06702   -0.00878    0.00873    0.00181
AFIX  43
H11   2    0.481944    0.346066    0.485320    11.00000   -1.20000
AFIX   0
C12   1    0.431128    0.298975    0.349935    11.00000    0.06173    0.06673 =
         0.06407   -0.00895    0.01356    0.00517
O13   4    0.402274    0.180752    0.126732    11.00000    0.08487    0.07329 =
         0.06290   -0.00730    0.01915   -0.00433
AFIX  87
H13   2    0.366162    0.133972    0.111488    11.00000   -1.20000
AFIX   0
C14   1    0.224310    0.057921    0.209171    11.00000    0.06957    0.06833 =
         0.05781    0.00304    0.00215    0.01220
O15   4    0.247100    0.074863    0.123917    11.00000    0.09046    0.08549 =
         0.05580    0.00464    0.00450   -0.00022
N16   3    0.160645   -0.012197    0.217107    11.00000    0.08101    0.08247 =
         0.05314    0.00330    0.00957    0.00289
C17   1    0.122278   -0.066260    0.128146    11.00000    0.08357    0.08774 =
         0.06678   -0.00399    0.01394   -0.00424
AFIX  23
H17A  2    0.113322   -0.019680    0.072183    11.00000   -1.20000
H17B  2    0.062522   -0.093998    0.138914    11.00000   -1.20000
AFIX   0
C18   1    0.184289   -0.148987    0.104086    11.00000    0.09002    0.08827 =
         0.07227   -0.01028    0.01938    0.00085
AFIX 137
H18A  2    0.157048   -0.184530    0.045891    11.00000   -1.50000
H18B  2    0.193400   -0.194919    0.159611    11.00000   -1.50000
H18C  2    0.242732   -0.121294    0.091112    11.00000   -1.50000
AFIX   0
C19   1    0.122835   -0.035620    0.309540    11.00000    0.07610    0.08215 =
         0.06146    0.00615    0.01172    0.01198
AFIX  23
H19A  2    0.057622   -0.050973    0.294890    11.00000   -1.20000
H19B  2    0.128512    0.023302    0.352762    11.00000   -1.20000
AFIX   0
C20   1    0.170523   -0.123422    0.363571    11.00000    0.09760    0.08174 =
         0.06702    0.00391    0.01524    0.00971
AFIX 137
H20A  2    0.163989   -0.182351    0.321651    11.00000   -1.50000
H20B  2    0.143228   -0.136086    0.424181    11.00000   -1.50000
H20C  2    0.234904   -0.108078    0.379495    11.00000   -1.50000
AFIX   0
N21   3    0.136937    0.333567    0.312152    11.00000    0.06994    0.06792 =
         0.06652   -0.00110    0.01248   -0.00139
C22   1    0.179307    0.379745    0.395445    11.00000    0.07126    0.06221 =
         0.06005   -0.00433    0.00730    0.01213
AFIX  43
H22   2    0.171264    0.364506    0.461505    11.00000   -1.20000
AFIX   0
C23   1    0.234193    0.450530    0.364659    11.00000    0.07586    0.07021 =
         0.06575   -0.00008    0.00425    0.00433
AFIX  43
H23   2    0.271731    0.493250    0.406492    11.00000   -1.20000
AFIX   0
C24   1    0.227329    0.451540    0.259521    11.00000    0.05232    0.06710 =
         0.06281   -0.00012    0.00702    0.00475
C25   1    0.164991    0.376383    0.230841    11.00000    0.05947    0.06829 =
         0.06749   -0.00151    0.01071    0.00465
C26   1    0.119353    0.325502    0.137989    11.00000    0.07116    0.06943 =
         0.08171    0.00479    0.00259   -0.00653
AFIX  13
H26   2    0.165353    0.289961    0.103054    11.00000   -1.20000
AFIX   0
C27   1    0.059678    0.252352    0.183377    11.00000    0.06267    0.06244 =
         0.08046    0.00512    0.01029    0.00266
C28   1   -0.002934    0.186201    0.141710    11.00000    0.05642    0.07170 =
         0.08966   -0.00054    0.00988    0.00323
AFIX  43
H28   2   -0.012412    0.180922    0.072308    11.00000   -1.20000
AFIX   0
C29   1   -0.052538    0.127120    0.197635    11.00000    0.07179    0.06796 =
         0.10612    0.00922    0.01116    0.00551
AFIX  43
H29   2   -0.094940    0.080805    0.167377    11.00000   -1.20000
AFIX   0
C30   1   -0.039475    0.136382    0.300246    11.00000    0.06641    0.06935 =
         0.10478    0.01566    0.01827    0.00201
AFIX  43
H30   2   -0.073889    0.096379    0.339392    11.00000   -1.20000
AFIX   0
C31   1    0.023208    0.203374    0.345389    11.00000    0.06937    0.06971 =
         0.09148    0.01135    0.02552    0.00207
AFIX  43
H31   2    0.032087    0.209380    0.414755    11.00000   -1.20000
AFIX   0
C32   1    0.071825    0.260500    0.287010    11.00000    0.05285    0.06260 =
         0.07812    0.00357    0.01271    0.00489
O33   4    0.069199    0.389936    0.074677    11.00000    0.10253    0.07888 =
         0.08886    0.00894    0.00954   -0.00350
AFIX  87
H33   2    0.102746    0.435851    0.058597    11.00000   -1.20000
AFIX   0
C34   1    0.260263    0.513958    0.184919    11.00000    0.07977    0.06506 =
         0.06356   -0.00727    0.01877   -0.00045
O35   4    0.224495    0.501514    0.096592    11.00000    0.09561    0.08349 =
         0.06082   -0.00570    0.01749   -0.00189
N36   3    0.324652    0.581593    0.202482    11.00000    0.08452    0.07140 =
         0.05905   -0.00342    0.01668   -0.00889
C37   1    0.350384    0.644340    0.122201    11.00000    0.08594    0.07316 =
         0.07235    0.00209    0.01376   -0.00075
AFIX  23
H37A  2    0.372228    0.709137    0.149139    11.00000   -1.20000
H37B  2    0.296439    0.656514    0.074661    11.00000   -1.20000
AFIX   0
C38   1    0.425281    0.595531    0.068545    11.00000    0.08926    0.07301 =
         0.08013    0.00125    0.02361   -0.00035
AFIX 137
H38A  2    0.401908    0.534405    0.036528    11.00000   -1.50000
H38B  2    0.477511    0.579948    0.116060    11.00000   -1.50000
H38C  2    0.443832    0.641344    0.019084    11.00000   -1.50000
AFIX   0
C39   1    0.377486    0.598094    0.300145    11.00000    0.09007    0.07105 =
         0.06305   -0.00742    0.01106   -0.00377
AFIX  23
H39A  2    0.440554    0.616284    0.291150    11.00000   -1.20000
H39B  2    0.378947    0.536225    0.339058    11.00000   -1.20000
AFIX   0
C40   1    0.334144    0.680956    0.354980    11.00000    0.09095    0.07636 =
         0.06800   -0.00967    0.00963   -0.00546
AFIX 137
H40A  2    0.334652    0.742633    0.317344    11.00000   -1.50000
H40B  2    0.368452    0.690310    0.419505    11.00000   -1.50000
H40C  2    0.271556    0.663021    0.363230    11.00000   -1.50000
AFIX   0
HKLF 4 1 1 0 0 0 1 0 0 0 1




REM  21MCD022 in P2(1)/c
REM wR2 = 0.3191, GooF = S = 1.013, Restrained GooF = 0.958 for all data
REM R1 = 0.1050 for 1265 Fo > 4sig(Fo) and 0.1829 for all 2468 data
REM 368 parameters refined using 324 restraints

END

WGHT      0.1691      0.0000

REM Instructions for potential hydrogen bonds
EQIV $1 x, -y+1/2, z+1/2
HTAB C2 O13_$1
HTAB C3 O35_$1
HTAB C11 O13_$1
HTAB O13 O15
HTAB C22 O15_$1
HTAB C31 O33_$1
HTAB O33 O35
EQIV $2 -x+1, y+1/2, -z+1/2
HTAB C39 O13_$2

REM Highest difference peak  0.359,  deepest hole -0.314,  1-sigma level  0.067
Q1    1   0.1595  0.3051  0.0616  11.00000  0.05    0.36
Q2    1   0.4452  0.4578  0.1935  11.00000  0.05    0.28
Q3    1   0.2417 -0.1779  0.2231  11.00000  0.05    0.24
Q4    1   0.3363  0.0843  0.1375  11.00000  0.05    0.24
Q5    1   0.6077  0.4832  0.2805  11.00000  0.05    0.23
Q6    1   0.6374  0.4520  0.4061  11.00000  0.05    0.22
Q7    1   0.1183 -0.1941  0.3390  11.00000  0.05    0.22
Q8    1   0.4109  0.6664  0.2412  11.00000  0.05    0.21
Q9    1   0.2215  0.1791  0.2813  11.00000  0.05    0.21
Q10   1   0.3035  0.3863  0.3835  11.00000  0.05    0.20
Q11   1   0.2449  0.3112  0.4191  11.00000  0.05    0.20
Q12   1  -0.1023  0.0821  0.3005  11.00000  0.05    0.20
Q13   1   0.1694  0.4391  0.0830  11.00000  0.05    0.20
Q14   1   0.3316  0.0632  0.3053  11.00000  0.05    0.20
Q15   1   0.1331  0.1948  0.2170  11.00000  0.05    0.20
Q16   1   0.3010  0.1370  0.1157  11.00000  0.05    0.20
Q17   1   0.5462  0.4304  0.2023  11.00000  0.05    0.20
Q18   1   0.2840  0.5031  0.3735  11.00000  0.05    0.20
Q19   1   0.1409  0.1889  0.3181  11.00000  0.05    0.19
Q20   1   0.4906  0.3715  0.1855  11.00000  0.05    0.19
;
_shelx_res_checksum   52992

_shelx_hkl_file
;
  -1   0   0    0.17    0.24
   2   0   0   19.62    4.37
  -2   0   0   20.30    4.38
   3   0   0    1.91    0.71
  -3   0   0    2.50    0.62
   4   0   0    3.93    1.25
  -4   0   0    5.58    1.18
  -5   0   0   10.39    2.37
  -5   0   0   13.90    2.50
   5   0   0    8.64    2.42
   6   0   0   -0.14    0.76
  -6   0   0    0.58    0.53
  -6   0   0    1.02    0.95
   7   0   0    0.53    0.95
  -7   0   0    3.43    1.18
  -7   0   0    3.09    0.93
   8   0   0    0.65    1.04
  -8   0   0    1.67    0.76
  -8   0   0    2.14    1.18
  -8   0   0    2.66    0.87
  -9   0   0    1.75    1.24
   9   0   0    0.46    1.15
  -9   0   0    1.71    0.91
 -10   0   0   25.50    5.99
 -10   0   0   27.23    5.92
 -11   0   0    0.94    1.15
  11   0   0    2.83    1.52
 -11   0   0    1.74    1.33
  12   0   0    3.18    1.68
 -12   0   0    1.19    1.55
 -12   0   0    2.68    1.15
  13   0   0    2.13    2.03
 -13   0   0   -0.58    1.18
 -13   0   0   -0.31    0.96
  14   0   0    7.44    3.44
   0   1   0    0.24    0.22
  -1  -1   0  103.26   24.80
   1   1   0  124.23   24.80
  -2  -1   0    0.10    0.41
   2   1   0    0.31    0.37
   3   1   0   19.31    4.26
   4  -1   0    1.72    0.89
  -4   1   0    2.28    0.98
  -4   1   0    3.52    0.76
   4   1   0    2.11    0.81
  -5  -1   0    5.25    1.33
  -5  -1   0    9.81    1.53
   5  -1   0    2.90    1.33
  -5   1   0    4.97    1.37
   5   1   0    5.56    1.29
  -5   1   0    2.64    1.38
  -6  -1   0    0.75    1.13
   6  -1   0   -1.30    0.79
  -6  -1   0    0.73    0.78
  -6  -1   0   -0.22    0.48
   6   1   0   -0.43    0.73
  -6   1   0   -0.05    0.84
  -7  -1   0    6.61    1.83
  -7  -1   0    6.18    1.48
  -7  -1   0    6.69    1.56
   7  -1   0    2.53    1.59
  -7   1   0    5.49    1.46
   7   1   0    7.14    1.58
  -7   1   0    7.31    1.59
   8  -1   0    1.56    1.01
  -8  -1   0    0.61    0.62
  -8  -1   0   -1.43    0.86
  -8  -1   0   -1.34    1.26
  -8   1   0   -1.16    1.43
  -8   1   0    0.84    0.76
   8   1   0    0.04    0.86
  -9  -1   0    0.47    1.29
  -9  -1   0    0.64    0.71
  -9  -1   0   -0.09    0.90
   9  -1   0   -0.58    1.13
  -9   1   0    1.37    1.02
  -9   1   0    0.75    0.82
   9   1   0   -1.74    1.34
  10  -1   0    2.68    1.48
 -10  -1   0    2.14    1.36
 -10  -1   0    1.78    0.93
 -10  -1   0    1.94    1.16
 -10   1   0    1.90    1.18
  10   1   0    2.68    1.32
 -10   1   0    2.87    1.01
  11  -1   0   -2.01    1.61
 -11  -1   0    2.55    1.29
 -11  -1   0   -0.44    1.03
 -11   1   0    0.16    0.99
  11   1   0    1.04    1.31
 -11   1   0    2.28    1.66
  12  -1   0    0.06    1.75
 -12  -1   0    0.38    0.95
 -12   1   0    2.48    1.28
 -12   1   0    1.02    1.01
  13  -1   0   -0.89    2.23
 -13  -1   0    0.16    1.03
 -13   1   0    0.55    1.09
 -13   1   0   -0.27    1.15
  13   1   0    5.20    1.65
 -14  -1   0   -1.11    1.01
 -14   1   0    1.68    0.90
  14   1   0    3.11    3.42
 -14   1   0   -0.11    1.07
  -1  -2   0    2.88    0.70
  -2  -2   0  220.43   47.66
   2   2   0  216.63   47.66
  -3  -2   0  192.82   41.14
   3   2   0  184.46   41.14
   4   2   0   86.67   17.74
  -4   2   0   79.66   17.77
  -4   2   0   76.39   17.76
  -5  -2   0   -1.21    0.99
   5  -2   0   -1.19    0.90
  -5   2   0    0.67    0.80
  -5   2   0    0.73    0.57
   5   2   0    0.12    0.68
  -6  -2   0   39.49    9.43
  -6  -2   0   49.26    9.41
  -6  -2   0   35.98    9.46
  -6   2   0   39.47    9.42
   6   2   0   47.97    9.42
  -7  -2   0    0.90    1.19
  -7  -2   0    2.51    0.98
   7  -2   0    0.74    1.05
  -7  -2   0    1.59    0.78
   7   2   0    0.57    0.85
  -7   2   0   -0.02    0.84
  -8  -2   0    5.53    1.51
  -8   2   0    7.03    1.61
   8   2   0    5.92    1.66
  -8   2   0    6.79    1.64
   9  -2   0   -0.35    1.47
  -9  -2   0    1.20    1.31
  -9  -2   0    4.07    1.15
  -9  -2   0    2.53    0.81
   9   2   0    0.85    1.13
  -9   2   0    1.66    1.01
  -9   2   0    1.50    0.90
 -10  -2   0    0.27    0.94
 -10  -2   0    0.04    0.78
  10  -2   0   -3.53    1.71
  10   2   0    1.14    1.20
 -10   2   0    0.01    0.86
 -10   2   0    0.27    1.01
 -11  -2   0    0.11    1.36
  11  -2   0    8.12    2.20
 -11  -2   0    1.42    1.05
 -11   2   0    0.45    1.01
 -11   2   0    2.21    1.19
  11   2   0    1.89    1.31
 -12  -2   0   -0.42    0.93
 -12  -2   0    0.68    1.20
  12  -2   0   -3.15    2.68
 -12   2   0    1.94    1.25
  12   2   0   -1.25    1.42
 -12   2   0    0.66    1.01
 -13  -2   0    2.17    1.14
 -13   2   0    0.42    1.14
  13   2   0    0.92    1.59
 -13   2   0    1.23    1.19
 -13   2   0   -0.13    0.90
  -2  -3   0   53.49   12.71
  -2   3   0   62.74   12.71
   2   3   0   58.79   12.71
  -3  -3   0  527.62  116.66
  -3   3   0  562.13  116.66
   3   3   0  493.40  116.66
  -3   3   0  556.40  116.67
  -3   3   0  536.06  116.67
  -4  -3   0    3.62    1.12
   4   3   0    3.59    1.10
  -4   3   0    4.53    1.09
  -4   3   0    3.45    1.16
  -4   3   0    4.21    1.02
  -5   3   0    8.75    2.38
  -5   3   0   10.59    2.30
   5   3   0   10.68    2.35
  -6  -3   0    0.91    0.86
   6  -3   0    1.95    1.31
  -6   3   0    0.13    1.15
   6   3   0   -0.32    0.75
  -6   3   0    1.04    1.17
  -7  -3   0   11.94    2.82
   7  -3   0    9.92    3.05
  -7  -3   0   13.13    2.95
  -7   3   0   13.21    3.06
  -8  -3   0    0.77    0.81
  -8  -3   0    1.79    1.03
   8  -3   0   -1.66    1.58
  -8   3   0    0.55    0.73
   8   3   0   -0.21    0.89
  -8   3   0   -0.99    0.83
   9  -3   0   -7.04    3.35
  -9  -3   0    0.58    0.73
  -9  -3   0    1.22    1.15
   9   3   0    0.43    0.99
  -9   3   0   -0.16    0.78
  -9   3   0    0.26    0.89
 -10  -3   0    0.84    0.85
 -10  -3   0    1.56    1.19
  10  -3   0   -8.09    3.96
 -10   3   0   -0.30    0.79
 -10   3   0    0.82    1.01
 -10   3   0    0.89    1.18
  10   3   0    1.26    1.14
 -11  -3   0   -0.60    0.88
 -11  -3   0    1.52    1.28
 -11   3   0   -1.15    0.77
 -11   3   0    0.57    1.31
  11   3   0    1.43    1.32
 -12  -3   0    1.33    0.95
 -12   3   0   -0.35    1.23
 -12   3   0    1.10    0.85
 -12   3   0    1.68    1.11
  12   3   0    2.18    1.66
 -13  -3   0    2.60    1.85
 -13   3   0    2.93    1.55
 -13   3   0    4.14    1.47
  13   3   0    6.30    1.90
  -1  -4   0    3.89    1.22
  -1   4   0    3.79    1.71
   1   4   0    5.51    1.27
   1   4   0    8.27    1.41
  -2  -4   0    9.08    2.62
  -2   4   0   12.24    2.70
   2   4   0   10.25    2.65
  -2   4   0   13.06    2.61
   2   4   0   15.57    2.69
  -3  -4   0   15.37    3.80
  -3   4   0   18.63    3.74
  -3   4   0   17.87    3.74
   3   4   0   15.36    3.78
  -3   4   0   17.39    3.83
   3   4   0   15.68    3.76
  -4  -4   0    2.78    1.01
   4   4   0    1.38    0.91
   4   4   0    4.48    1.04
  -4   4   0    3.34    1.02
  -4   4   0    2.19    0.84
  -4   4   0    2.98    0.93
  -5  -4   0    7.96    1.93
  -5   4   0    7.03    1.91
   5   4   0    7.95    1.87
  -5   4   0    6.38    1.85
   5   4   0    9.75    1.94
   6   4   0   19.95    3.87
  -6   4   0   17.78    3.78
  -6   4   0   14.87    3.75
  -7  -4   0    2.11    1.78
  -7   4   0    1.11    0.95
   7   4   0    2.26    1.33
  -7   4   0    3.10    0.93
  -7   4   0    3.66    1.04
   7   4   0    2.46    1.06
  -8  -4   0    2.50    1.83
  -8  -4   0    5.43    1.63
   8   4   0    5.55    1.90
  -8   4   0    6.22    1.50
   8   4   0    6.03    1.52
  -8   4   0    5.51    1.54
  -9  -4   0    5.35    1.91
  -9  -4   0    8.15    2.69
   9   4   0   10.60    2.09
   9   4   0    8.57    2.54
  -9   4   0    8.99    1.98
  -9   4   0    8.30    2.05
 -10  -4   0   -0.47    0.91
 -10  -4   0    1.25    1.75
  10   4   0  -11.05    3.17
  10   4   0    1.90    1.15
 -10   4   0    0.07    1.04
 -10   4   0    1.35    0.94
 -11  -4   0    4.53    2.08
 -11  -4   0   -1.21    0.98
 -11   4   0    0.70    0.99
  11   4   0    0.38    1.26
 -11   4   0   -0.93    1.15
 -12  -4   0   -0.24    1.00
 -12   4   0   -0.94    1.20
  12   4   0   -1.17    1.49
 -12   4   0    0.07    1.05
 -13  -4   0    0.80    0.93
 -13   4   0    2.43    1.30
 -13   4   0    1.84    1.38
  13   4   0    5.07    1.75
   0  -5   0    0.71    0.52
   0   5   0    0.91    0.73
   0   5   0   -0.58    0.52
  -1  -5   0    3.34    1.25
   1   5   0    6.54    1.42
  -1   5   0    4.79    1.23
  -1   5   0    7.33    1.35
  -2  -5   0   -0.05    0.52
  -2   5   0   -0.34    0.81
   2   5   0    0.21    0.68
   2   5   0    0.50    0.84
  -2   5   0    0.54    0.76
  -3  -5   0   28.04    6.39
   3   5   0   26.19    6.36
   3   5   0   32.27    6.39
  -3   5   0   31.29    6.40
  -3   5   0   27.84    6.35
  -4  -5   0   17.21    3.85
   4   5   0   16.66    3.80
   4   5   0   16.79    3.83
  -5  -5   0   21.47    5.15
  -5   5   0   22.42    5.11
   5   5   0   23.58    5.15
   5   5   0   24.70    5.19
  -5   5   0   20.16    5.09
  -5   5   0   25.58    5.11
  -6   5   0   97.94   21.85
   6   5   0   95.71   21.86
   6   5   0  103.46   21.87
  -6   5   0  103.64   21.86
  -7   5   0    1.23    0.78
   7   5   0    0.80    1.30
   7   5   0    0.24    0.90
  -7   5   0    0.04    0.77
  -7   5   0   -1.13    0.80
  -8  -5   0    5.42    1.61
   8   5   0    3.40    1.35
  -8   5   0    3.36    1.25
  -8   5   0    4.07    1.31
  -8   5   0    5.49    1.39
   8   5   0    5.66    1.63
  -9  -5   0   -1.63    1.34
  -9   5   0   -1.42    1.53
   9   5   0    0.35    1.72
   9   5   0    1.41    1.06
  -9   5   0    0.34    1.04
 -10  -5   0    1.22    1.19
 -10   5   0    0.77    1.46
  10   5   0    1.58    2.94
 -10   5   0    1.38    1.33
 -11  -5   0   -0.69    1.04
 -11   5   0    1.20    1.16
 -11   5   0   -0.02    1.23
  11   5   0    2.70    1.46
 -12  -5   0    1.19    1.10
 -12   5   0   -1.49    1.15
  12   5   0   -4.16    1.38
 -12   5   0    0.68    1.30
   0   6   0    0.26    0.54
   0   6   0    0.16    0.81
  -1  -6   0    0.89    0.75
   1   6   0    2.54    0.69
   1   6   0    2.11    0.86
  -2  -6   0    0.50    0.70
   2   6   0    3.12    0.86
   2   6   0    2.22    0.92
  -3  -6   0    7.18    1.82
   3   6   0   11.79    1.85
   3   6   0    6.95    1.77
  -3   6   0    8.43    1.80
  -3   6   0    4.42    1.69
  -4  -6   0    1.89    1.13
  -4   6   0    0.60    1.17
  -4   6   0    2.09    0.94
   4   6   0    2.62    1.09
   4   6   0    1.78    1.00
  -4   6   0    3.15    0.80
  -5  -6   0    3.32    1.17
  -5   6   0    1.93    0.95
   5   6   0    2.92    1.09
   5   6   0    2.49    1.02
  -5   6   0    1.51    1.00
  -5   6   0    1.93    0.79
  -6   6   0   30.65    6.11
  -6   6   0   27.45    6.13
   6   6   0   25.62    6.13
  -6   6   0   26.34    6.13
  -6   6   0   27.60    6.11
   6   6   0   27.18    6.16
   7   6   0    6.53    2.37
  -7   6   0   10.82    2.41
  -7   6   0    9.71    2.39
   7   6   0    9.24    2.55
  -7   6   0   13.35    2.41
  -8  -6   0    2.66    1.61
  -8   6   0    2.44    1.19
   8   6   0    3.67    1.58
  -8   6   0    4.14    1.25
   8   6   0    4.65    1.28
  -8   6   0    2.08    1.12
  -9  -6   0   -0.69    1.62
   9   6   0   -2.40    1.62
  -9   6   0    1.28    0.99
  -9   6   0    0.65    1.04
 -10  -6   0    2.31    1.31
  10   6   0    3.00    1.41
 -10   6   0    1.94    1.16
 -10   6   0    1.45    1.23
 -11  -6   0    2.04    1.47
 -11   6   0    2.71    1.41
 -11   6   0    3.56    1.43
  11   6   0    2.94    1.38
 -12  -6   0    0.23    1.21
  12   6   0   -0.03    1.31
 -12   6   0    0.95    1.31
 -12   6   0    1.50    1.14
   0  -7   0    0.06    0.85
   0   7   0   -0.24    0.82
   0   7   0    0.82    0.98
  -1  -7   0   -1.00    0.70
   1  -7   0   -1.98    0.88
   1   7   0    0.65    0.55
  -1   7   0   -0.31    0.49
  -1   7   0    0.24    0.97
  -1   7   0   -2.91    1.05
   1   7   0   -0.60    0.86
  -2  -7   0   10.77    3.04
  -2   7   0   13.73    2.95
   2   7   0   13.02    2.87
  -2   7   0   13.15    2.99
   2   7   0   13.33    2.96
  -2   7   0   12.30    2.88
  -3  -7   0    3.28    1.19
  -3   7   0    3.01    1.07
   3   7   0    0.58    1.38
  -3   7   0    2.41    0.75
   3   7   0    1.51    0.87
  -3   7   0    2.63    0.92
  -4  -7   0   19.27    4.03
  -4   7   0   17.34    3.86
  -4   7   0   20.35    3.89
   4   7   0   19.18    3.93
  -4   7   0   16.60    3.90
  -4   7   0   15.33    3.89
   4   7   0   13.79    3.88
  -5   7   0    0.01    0.86
   5   7   0    0.45    1.01
  -5   7   0   -0.17    0.83
  -5   7   0    0.07    0.59
   5   7   0   -0.25    0.86
  -5   7   0    1.13    0.86
  -6  -7   0   -2.28    1.25
  -6   7   0    0.72    0.80
  -6   7   0    2.74    0.86
  -6   7   0    0.25    0.90
  -6   7   0    0.65    0.84
   6   7   0    1.63    1.11
   6   7   0    1.24    0.99
   7   7   0    0.29    0.99
  -7   7   0   -0.47    0.82
  -7   7   0   -1.13    1.05
   7   7   0    1.14    1.11
  -7   7   0   -0.38    0.95
  -8   7   0    1.35    1.05
   8   7   0    1.91    1.25
  -8   7   0    1.49    1.07
  -8   7   0   -0.15    0.90
  -9  -7   0   -3.81    1.66
   9   7   0   -0.84    1.04
  -9   7   0   -1.88    1.10
  -9   7   0    0.22    0.95
   9   7   0   -1.75    1.50
  -9   7   0    2.42    1.04
 -10   7   0   20.98    5.35
  10   7   0   24.93    5.33
 -10   7   0   24.38    5.31
 -11  -7   0   -0.33    1.33
 -11   7   0    0.55    1.19
  11   7   0   -0.78    1.14
 -11   7   0   -1.94    1.25
   0  -8   0   -0.84    1.18
   0   8   0    2.29    1.03
   0   8   0    1.64    0.58
  -1  -8   0    5.85    2.24
  -1   8   0   11.24    2.20
  -1   8   0    8.71    1.99
   1   8   0    8.28    1.98
   1   8   0    9.37    2.14
  -2  -8   0    1.30    1.21
  -2   8   0   -1.84    1.03
   2   8   0    1.13    0.89
  -2   8   0    1.14    0.86
  -2   8   0    0.23    0.53
   2   8   0    0.57    0.49
  -2   8   0   -0.96    0.64
  -3  -8   0    2.00    1.32
   3   8   0    2.18    0.73
  -3   8   0    1.84    0.69
  -3   8   0    1.94    1.21
   3   8   0    2.96    1.04
  -3   8   0    0.21    1.11
  -3   8   0    2.83    1.05
  -4  -8   0    0.41    1.70
   4   8   0   -0.72    0.86
  -4   8   0    1.06    0.82
  -4   8   0   -0.25    0.88
  -4   8   0    0.44    0.68
  -4   8   0   -1.02    0.97
  -5  -8   0    1.95    1.40
  -5   8   0    1.09    0.95
  -5   8   0    0.93    0.69
   5   8   0   -0.19    1.01
   5   8   0    0.48    0.87
  -5   8   0    0.60    0.83
  -5   8   0    1.25    0.94
  -6  -8   0   -0.53    1.47
  -6   8   0    0.79    1.03
  -6   8   0    1.35    0.93
   6   8   0    0.88    1.04
   6   8   0    1.38    1.05
  -6   8   0    0.88    1.09
  -7   8   0   14.14    2.77
  -7   8   0    9.15    2.76
   7   8   0    6.46    3.08
   7   8   0   10.12    2.81
  -7   8   0   14.86    2.86
  -8   8   0    0.40    1.24
   8   8   0    1.30    1.21
  -8   8   0    0.96    0.96
   8   8   0    3.48    1.99
  -8   8   0    2.85    1.12
  -9  -8   0   54.00   10.65
  -9   8   0   46.33   10.43
  -9   8   0   42.86   10.45
  -9   8   0   45.99   10.46
   9   8   0   50.10   10.42
 -10  -8   0    2.98    1.99
  10   8   0    0.02    1.06
 -10   8   0   -0.08    1.05
 -10   8   0   -0.42    1.20
  11   8   0    1.18    1.16
 -11   8   0    2.77    1.15
   0   9   0   -0.27    0.49
   0   9   0    2.35    1.04
  -1  -9   0    3.28    1.58
   1   9   0    0.64    0.59
   1   9   0    1.58    1.06
  -1   9   0    0.92    0.63
  -1   9   0    1.84    0.71
  -1   9   0    1.02    1.00
  -2  -9   0   -0.61    1.71
  -2   9   0    0.54    0.77
   2   9   0   -0.03    0.52
  -2   9   0    0.88    0.57
  -2   9   0    1.46    0.95
   2   9   0    0.42    0.97
  -3  -9   0    1.25    2.03
   3   9   0    1.58    0.97
  -3   9   0    0.29    0.55
   3   9   0    0.44    0.52
  -3   9   0   -0.09    0.74
  -3   9   0    1.43    1.33
  -3   9   0   -0.23    0.80
  -4  -9   0    1.16    1.67
  -4   9   0    0.35    0.64
   4   9   0    0.39    1.01
  -4   9   0   -1.12    1.11
  -4   9   0   -1.07    1.06
  -5  -9   0    0.62    1.72
   5   9   0    0.08    1.17
  -5   9   0   -0.77    0.92
  -5   9   0    0.33    0.68
  -5   9   0    1.14    1.16
  -5   9   0    0.35    0.88
   5   9   0   -0.44    0.60
  -6  -9   0    0.24    1.72
  -6   9   0   -0.72    1.13
   6   9   0    1.19    1.31
  -6   9   0    1.08    1.12
  -7   9   0   -1.50    0.92
  -7   9   0   -0.87    1.06
  -7   9   0   -0.88    1.18
   7   9   0   -1.56    1.53
  -8  -9   0    7.73    2.28
  -8   9   0    3.65    1.37
   8   9   0    0.60    1.82
   8   9   0    3.40    1.35
  -8   9   0    2.58    1.52
  -8   9   0    6.24    1.49
  -9  -9   0   -1.47    1.96
   9   9   0    7.47    2.67
   9   9   0    0.57    0.97
  -9   9   0   -1.90    1.20
  -9   9   0    0.67    1.00
  -9   9   0   -0.17    1.08
 -10   9   0    2.80    1.51
  10   9   0    2.90    1.35
 -10   9   0    3.94    1.22
   0  10   0    0.98    0.75
   0  10   0    0.51    1.07
   0  10   0    1.57    0.59
  -1  10   0    1.92    0.84
   1  10   0    0.46    0.59
  -1  10   0    2.27    1.07
  -1  10   0    1.34    0.63
   1  10   0    2.40    1.14
   2  10   0   -0.66    0.52
  -2  10   0   -0.72    1.20
  -2  10   0   -0.37    0.56
   2  10   0    1.13    1.11
  -2  10   0    0.78    0.97
  -3 -10   0    7.28    2.44
  -3  10   0    0.78    0.89
  -3  10   0    0.48    0.73
   3  10   0    1.53    1.15
  -3  10   0    1.67    1.14
   3  10   0    0.18    0.62
  -4 -10   0   -5.22    2.28
  -4  10   0    0.35    1.01
  -4  10   0   -0.17    0.64
  -4  10   0    4.07    1.26
   4  10   0    0.67    1.20
   4  10   0    0.61    0.56
  -5 -10   0    2.13    2.25
   5  10   0    1.14    0.56
  -5  10   0    0.03    0.96
  -5  10   0    0.03    0.82
   5  10   0    1.38    1.35
  -5  10   0    1.36    1.26
   6  10   0    0.18    0.52
  -6  10   0    0.66    1.17
   6  10   0   -0.96    1.37
  -6  10   0    0.41    1.19
  -6  10   0    0.13    0.81
  -7  10   0    6.31    2.14
  -7  10   0    8.70    2.28
   7  10   0   10.14    2.58
  -7  10   0   10.66    2.27
  -8 -10   0    0.57    2.18
   8  10   0    1.42    2.14
  -8  10   0    2.09    0.98
   8  10   0    0.12    0.67
  -8  10   0    0.69    1.06
  -8  10   0    0.54    1.24
   0  11   0   -0.59    0.53
   0  11   0    0.46    1.08
   0  11   0   -0.65    1.06
   1  11   0   -0.45    0.98
  -1  11   0   -0.95    0.98
  -1  11   0    1.12    1.07
  -1  11   0    0.55    0.55
   1  11   0    0.78    1.08
   1  11   0    0.64    0.51
  -2  11   0    1.13    0.65
  -2  11   0    1.44    0.90
   2  11   0    1.73    1.15
  -2  11   0    1.42    0.88
   2  11   0    0.71    1.18
   2  11   0    0.76    0.57
  -3  11   0    0.15    0.89
  -3  11   0    0.39    0.66
   3  11   0   -0.02    0.51
  -3  11   0   -0.45    0.90
   3  11   0    0.67    1.21
  -4 -11   0   -7.34    3.39
  -4  11   0    0.40    0.79
  -4  11   0   -0.38    0.84
   4  11   0   -1.03    0.49
  -4  11   0   -0.57    0.65
   4  11   0    0.46    1.29
  -5 -11   0    2.49    2.86
  -5  11   0   -0.81    0.95
  -5  11   0    0.78    0.75
  -5  11   0    0.25    1.01
   5  11   0   -0.18    0.48
   5  11   0   -1.93    1.32
  -6  11   0    1.89    1.05
  -6  11   0    1.67    1.56
   6  11   0   -0.79    1.67
   6  11   0    0.32    0.51
  -6  11   0    1.25    0.93
  -7  11   0    2.11    1.02
   7  11   0    4.38    2.05
  -7  11   0    5.25    1.59
   7  11   0    1.09    0.70
  -7  11   0    2.41    1.25
   0  12   0    0.19    0.53
   0  12   0   -1.16    0.80
   0  12   0    0.61    1.12
   1  12   0    1.91    1.16
  -1  12   0    0.89    0.98
   1  12   0    0.70    1.27
  -1  12   0    0.70    0.57
   1  12   0    0.01    0.55
  -1  12   0    0.05    0.87
  -2  12   0   -0.73    0.64
   2  12   0   -0.24    0.51
  -2  12   0    0.23    0.97
   2  12   0   -0.17    1.16
  -2  12   0   -0.97    0.77
  -3  12   0   -0.22    0.56
  -3  12   0    0.27    0.75
  -3  12   0    0.16    0.82
   3  12   0    0.61    0.53
   3  12   0    2.79    1.25
  -4  12   0    0.28    0.68
  -4  12   0    0.73    0.89
   4  12   0   -0.70    1.36
   4  12   0    0.74    0.50
  -4  12   0    2.89    1.01
  -5  12   0    0.47    1.02
  14   0  -1    0.73    1.85
 -14   0   1   -0.06    1.13
  13   0  -1   -4.27    1.66
 -13   0   1   -1.74    1.11
 -13   0   1    0.83    1.19
 -12   0   1   -0.07    1.02
 -12   0   1    0.86    1.39
  12   0  -1   -0.14    1.67
 -11   0   1    1.32    1.19
 -11   0   1    0.25    1.39
  11   0  -1   -2.26    1.33
 -10   0   1    0.03    1.20
 -10   0   1   -0.11    0.79
 -10   0   1   -1.19    0.83
  10   0  -1    1.68    1.17
  -9   0   1    1.13    1.21
  -9   0   1    0.52    0.63
  -9   0   1   -0.19    0.79
   9   0  -1   -0.14    0.96
  -8   0   1    0.27    0.62
   8   0  -1    1.76    0.89
  -7   0   1    1.83    1.05
   7   0  -1   -0.19    0.76
  -7   0   1   -0.57    0.95
  -6   0   1    0.41    0.53
   6   0  -1    0.81    0.73
  -6   0   1    0.31    0.92
   5   0  -1    0.33    0.70
  -5   0   1   -0.43    0.50
  -5   0   1    0.51    0.89
  -4   0   1    0.01    0.47
   4   0  -1   -0.47    0.64
  -3   0   1   -0.61    0.44
   3   0  -1   -0.31    0.57
  -2   0   1    0.60    0.42
   2   0  -1    0.56    0.47
  -1   0   1   -0.19    0.35
   1   0  -1   -0.49    0.30
   0   0  -1    0.07    0.35
  -1   0  -1    0.08    0.21
  -3   0  -1   -0.25    0.46
   3   0   1    0.22    0.56
  -4   0  -1    0.09    0.81
   4   0   1   -0.30    0.67
  -4   0  -1    1.48    0.73
  -4   0  -1   -0.11    0.37
   5   0   1    0.45    0.74
  -5   0  -1   -0.32    0.91
  -5   0  -1    0.18    0.44
  -5   0  -1   -0.43    0.70
   6   0   1   -0.91    0.85
  -6   0  -1    0.15    0.78
  -6   0  -1   -0.15    0.92
  -6   0  -1    0.82    0.52
  -7   0  -1    1.50    2.01
  -7   0  -1    0.83    1.24
  -7   0  -1    0.53    1.24
  -8   0  -1    0.16    0.91
  -8   0  -1   -0.32    1.13
   8   0   1   -0.90    1.00
  -9   0  -1    0.97    1.13
   9   0   1    1.19    1.12
  -9   0  -1   -0.64    0.82
 -10   0  -1    0.31    1.15
 -10   0  -1   -0.61    0.91
  11   0   1   -0.65    1.48
 -11   0  -1   -0.47    1.22
 -11   0  -1    0.78    0.98
 -12   0  -1    0.00    1.23
 -12   0  -1   -1.03    0.96
  12   0   1   -5.71    1.79
 -13   0  -1    1.01    1.05
  13   0   1    5.27    2.10
 -14  -1   1    0.47    1.27
  14  -1  -1   -0.88    2.81
  14   1  -1    3.68    1.81
 -14   1   1    0.28    1.14
 -14   1   1    0.15    1.26
 -13  -1   1    0.66    1.10
  13  -1  -1    5.57    1.83
  13   1  -1   -0.55    1.65
 -13   1   1   -0.96    1.15
 -13   1   1   -0.64    1.11
  12  -1  -1   -1.86    1.69
 -12   1   1    0.66    1.01
 -12   1   1    1.35    1.68
 -11  -1   1    0.82    1.11
 -11  -1   1   -1.53    0.96
  11  -1  -1    0.66    1.56
 -11  -1   1   -0.72    0.93
 -11   1   1    0.76    0.94
 -11   1   1   -1.59    1.28
  11   1  -1   -0.41    1.21
 -10  -1   1   -0.97    1.14
 -10  -1   1    0.09    0.73
 -10  -1   1   -0.51    0.91
  10   1  -1    0.77    1.09
 -10   1   1   -0.90    0.84
 -10   1   1    0.56    1.11
  -9  -1   1   -1.69    0.78
   9  -1  -1   -0.49    1.07
  -9  -1   1   -0.80    1.26
  -9  -1   1    0.42    0.68
  -9   1   1   -0.10    0.60
  -9   1   1    0.14    1.00
  -8  -1   1    7.22    2.00
  -8  -1   1    6.17    1.70
   8  -1  -1    6.30    1.73
  -8  -1   1    5.27    1.57
  -8   1   1    7.40    1.75
  -8   1   1    6.88    1.60
   8   1  -1    7.82    1.70
  -7  -1   1    0.47    0.95
  -7  -1   1   -0.73    1.21
   7  -1  -1   -0.44    0.84
   7   1  -1   -0.03    0.73
  -7   1   1   -0.33    0.88
  -6  -1   1   13.86    2.90
   6   1  -1   12.12    2.95
  -6   1   1   12.35    2.90
  -6   1   1   13.15    2.96
  -5  -1   1    0.72    0.49
   5  -1  -1    0.92    0.76
  -5   1   1    0.02    0.61
   5   1  -1    0.80    0.67
  -5   1   1    0.66    0.56
   4  -1  -1    8.34    2.15
   4   1  -1    9.20    2.10
  -4   1   1    9.69    2.12
  -3  -1   1   20.85    5.31
   3   1  -1   24.27    5.29
  -3   1   1   27.22    5.32
   2  -1  -1   16.34    4.04
   2   1  -1   17.17    3.95
  -2   1   1   20.81    4.02
   1  -1  -1    9.68    1.92
  -1   1   1    7.60    1.87
   1   1  -1    9.00    1.88
   0   1   1    0.18    0.26
  -1  -1  -1    0.06    0.20
   1   1   1    0.13    0.39
  -2  -1  -1    1.57    0.54
   2   1   1    1.96    0.64
  -3  -1  -1   12.54    2.82
   3   1   1   11.83    2.75
  -4  -1  -1   18.16    4.64
  -4   1  -1   21.10    4.58
  -4   1  -1   21.53    4.57
  -4   1  -1   22.80    4.61
   4   1   1   18.99    4.57
  -5  -1  -1   12.74    2.88
  -5  -1  -1   13.76    2.82
  -5  -1  -1   16.89    2.97
   5   1   1    9.60    2.82
  -5   1  -1   10.74    2.83
  -5   1  -1   13.47    2.90
  -6  -1  -1   27.61    5.65
  -6  -1  -1   27.53    5.75
  -6  -1  -1   24.98    5.69
  -6   1  -1   23.93    5.70
  -6   1  -1   28.32    5.67
   6   1   1   20.66    5.68
  -7  -1  -1    2.05    0.88
   7  -1   1    3.21    1.18
  -7  -1  -1    2.47    1.14
  -7  -1  -1    3.04    1.32
   7   1   1    1.85    1.06
  -7   1  -1    3.13    1.10
  -7   1  -1    3.48    1.00
   8  -1   1   -1.10    1.37
  -8  -1  -1    0.41    0.95
  -8  -1  -1    0.31    0.65
  -8  -1  -1    1.96    1.51
  -8   1  -1    0.07    0.79
  -8   1  -1    0.52    0.99
   8   1   1    1.02    1.03
   9  -1   1    1.71    1.35
  -9  -1  -1    1.07    0.95
  -9  -1  -1    0.23    0.74
  -9  -1  -1    0.51    1.25
  -9   1  -1   -0.90    0.99
   9   1   1   -2.79    1.08
  -9   1  -1   -0.94    0.86
 -10  -1  -1    1.57    1.28
 -10  -1  -1    1.29    0.93
  10  -1   1   -0.46    1.63
 -10   1  -1    1.17    1.11
 -10   1  -1   -0.18    0.92
  10   1   1   -1.01    1.22
 -11  -1  -1    1.42    1.50
  11  -1   1    3.93    1.84
 -11  -1  -1    0.27    1.09
  11   1   1   -0.03    1.38
 -11   1  -1    0.67    1.10
 -11   1  -1   -1.23    0.86
 -12  -1  -1    1.14    1.12
 -12   1  -1    1.58    1.01
 -12   1  -1    1.21    1.22
 -13  -1  -1    1.19    0.96
 -13   1  -1    1.20    1.06
  13   1   1    0.01    1.78
 -13   1  -1   -1.12    1.16
 -13   1  -1    2.03    0.76
 -13  -2   1    2.38    1.34
  13  -2  -1    4.26    2.30
  13   2  -1    3.88    1.63
 -13   2   1    2.90    1.29
 -13   2   1   -0.54    1.24
 -13   2   1   -0.67    1.01
 -12  -2   1   -0.05    0.93
  12  -2  -1    1.68    1.76
  12   2  -1    4.38    1.44
 -12   2   1   -2.83    1.21
 -12   2   1    0.26    1.01
  11  -2  -1   -4.31    1.78
 -11  -2   1   -1.15    1.00
 -11  -2   1    0.94    1.72
 -11   2   1    0.77    1.01
 -11   2   1   -0.35    1.17
  11   2  -1   -1.17    1.17
 -10  -2   1    1.00    0.80
  10  -2  -1    3.88    1.64
 -10  -2   1   -0.30    1.00
 -10   2   1    0.12    0.95
  10   2  -1    1.80    1.13
 -10   2   1    0.64    1.03
  -9  -2   1   -0.01    1.06
  -9  -2   1    1.82    0.98
  -9  -2   1    0.18    0.67
   9  -2  -1   -0.94    1.20
   9   2  -1    0.37    0.90
  -9   2   1    0.14    0.88
  -8  -2   1   -1.02    0.93
   8  -2  -1   -0.21    1.11
  -8  -2   1   -1.27    1.08
  -8  -2   1    0.77    0.62
   8   2  -1   -0.29    1.30
  -8   2   1    0.19    0.86
  -7  -2   1    0.79    0.96
  -7  -2   1    1.97    1.09
  -7  -2   1    1.04    1.24
   7  -2  -1   -0.26    0.99
   7   2  -1    2.97    0.84
  -7   2   1    1.02    0.99
   6  -2  -1    2.24    1.38
  -6  -2   1    7.85    1.37
  -6  -2   1    5.95    1.50
  -6   2   1    3.12    1.24
   6   2  -1    5.74    1.27
  -5  -2   1    2.35    0.83
   5  -2  -1    2.34    0.92
   5   2  -1    0.36    0.64
  -5   2   1    1.84    0.76
  -5   2   1    1.51    0.57
  -5   2   1    0.59    0.38
  -4   2   1   88.30   19.62
  -4   2   1   91.42   19.61
   3  -2  -1  715.34  153.98
   3   2  -1  697.00  153.98
  -2  -2   1    4.07    1.14
   2  -2  -1    4.61    1.15
  -2   2   1    3.98    1.06
   2   2  -1    5.06    1.09
   1  -2  -1    7.70    1.68
  -1   2   1    7.23    1.63
   1   2  -1    6.98    1.63
   0  -2  -1    0.83    0.55
   0   2   1    0.14    0.43
  -1  -2  -1    4.41    1.03
  -2  -2  -1   35.99    8.34
   2   2   1   40.87    8.36
  -3  -2  -1  520.67  120.15
  -3   2  -1  585.40  120.15
   3   2   1  551.96  120.15
  -3   2  -1  546.06  120.15
  -4  -2  -1   17.40    3.84
  -4   2  -1   16.99    3.85
  -4   2  -1   17.30    3.88
  -5  -2  -1    2.76    0.91
  -5  -2  -1    0.43    1.19
  -5   2  -1    2.37    0.96
  -5   2  -1    3.09    0.86
  -5   2  -1    2.19    0.82
   5   2   1    1.60    0.87
  -6  -2  -1    1.01    0.81
  -6  -2  -1    1.83    1.19
   6  -2   1    2.41    1.24
   6   2   1    1.70    0.88
  -6   2  -1    0.46    0.87
  -7  -2  -1   11.74    2.44
  -7  -2  -1    8.68    2.30
   7  -2   1    5.41    2.45
  -7  -2  -1   12.21    2.35
   7   2   1    8.41    2.30
  -7   2  -1   10.08    2.25
  -7   2  -1    9.49    2.27
  -8  -2  -1    3.89    1.55
  -8  -2  -1    1.93    1.04
  -8  -2  -1    3.94    1.29
   8  -2   1    7.58    1.66
  -8   2  -1    3.85    1.22
  -8   2  -1    4.46    1.16
   8   2   1    4.33    1.30
   9  -2   1    4.02    2.80
  -9  -2  -1   -0.24    1.04
  -9  -2  -1    0.37    0.70
   9   2   1    1.04    1.23
  -9   2  -1    1.63    0.88
  -9   2  -1    0.00    0.96
 -10  -2  -1    0.77    0.95
 -10  -2  -1    0.49    0.82
  10  -2   1   -8.66    2.32
 -10   2  -1    0.18    0.99
 -10   2  -1   -0.37    0.90
  10   2   1    0.68    1.19
 -11   2  -1    0.72    1.17
 -11   2  -1    1.00    1.01
  11   2   1    1.15    1.36
 -12  -2  -1   -1.33    1.00
 -12   2  -1    1.27    0.96
 -12   2  -1    0.59    1.11
  12   2   1   -0.45    1.47
 -12   2  -1    0.72    0.81
 -13  -2  -1   -0.10    1.11
  13   2   1    4.20    1.72
 -13   2  -1    1.39    1.16
 -13   2  -1   -0.45    0.77
 -13   2  -1   -0.07    0.97
 -13  -3   1    3.92    1.96
 -13  -3   1    2.89    1.25
 -13   3   1    2.39    1.55
 -13   3   1    6.12    1.68
  13   3  -1    4.56    1.80
  12  -3  -1   -7.36    4.13
 -12  -3   1   -2.19    1.66
 -12  -3   1   -2.01    0.88
 -12   3   1    0.57    1.16
  12   3  -1    2.41    1.69
 -12   3   1    0.31    1.23
 -11  -3   1    0.75    0.88
  11  -3  -1    2.75    2.03
 -11  -3   1    0.80    1.26
 -11   3   1   -1.59    1.79
  11   3  -1   -1.83    1.25
 -11   3   1   -1.32    1.10
 -11   3   1    0.11    0.89
 -10  -3   1    0.38    0.79
  10  -3  -1   -0.73    1.66
 -10  -3   1    1.73    1.31
 -10   3   1    0.84    0.97
 -10   3   1    0.51    1.01
  10   3  -1    2.07    1.04
   9  -3  -1    6.94    1.70
  -9  -3   1    4.16    1.32
  -9  -3   1    0.77    0.83
  -9   3   1    1.08    1.03
   9   3  -1    2.61    1.09
  -8  -3   1    1.47    1.13
  -8  -3   1    0.63    0.64
  -8   3   1   -0.49    0.88
   8   3  -1    0.00    0.83
  -7  -3   1    1.39    1.21
  -7  -3   1    4.05    1.27
   7  -3  -1    4.69    1.41
  -7   3   1    3.35    1.16
  -6  -3   1   13.74    2.78
  -6  -3   1   11.05    2.77
   6  -3  -1   10.72    2.86
  -6   3   1   10.51    2.72
   6   3  -1   12.80    2.71
   5  -3  -1   38.31    9.00
   5   3  -1   44.03    8.93
  -5   3   1   38.68    8.94
   4  -3  -1   16.46    3.57
   4   3  -1   14.76    3.51
  -4   3   1   16.19    3.51
  -4   3   1   15.48    3.50
   3  -3  -1  248.29   57.82
  -3  -3   1  274.44   57.82
  -3   3   1  264.42   57.86
   3   3  -1  257.71   57.81
  -3   3   1  281.21   57.82
   2  -3  -1   34.40    7.48
  -2  -3   1   29.84    7.48
   2   3  -1   31.71    7.46
  -2   3   1   38.58    7.49
  -2   3   1   37.34    7.47
   1  -3  -1    9.92    2.39
  -1   3   1   10.81    2.36
   0  -3  -1    1.20    0.43
   0   3   1    0.63    0.86
  -1  -3  -1   -0.38    0.41
   1   3   1    0.11    0.63
  -2   3  -1   50.62   11.07
  -3  -3  -1   61.47   12.34
   3   3   1   54.03   12.33
  -3   3  -1   53.97   12.40
  -3   3  -1   56.98   12.33
  -3   3  -1   54.64   12.34
  -4  -3  -1    2.33    0.86
  -4   3  -1    1.30    0.71
   4   3   1    1.95    0.89
  -4   3  -1    1.66    1.05
  -4   3  -1    3.72    0.87
  -4   3  -1    1.88    0.77
  -5  -3  -1    1.06    0.76
  -5  -3  -1   -0.20    0.99
  -5   3  -1    0.77    0.63
  -5   3  -1    0.25    0.60
  -5   3  -1    1.19    0.75
  -5   3  -1    0.60    0.72
   5   3   1    0.72    0.72
  -6  -3  -1   13.74    3.27
  -6   3  -1   13.53    3.25
  -6   3  -1   16.03    3.25
  -7  -3  -1    9.51    1.89
  -7  -3  -1    6.76    1.93
   7   3   1    8.45    1.93
  -7   3  -1    7.84    1.82
  -7   3  -1    6.53    1.79
   7   3   1    6.12    2.13
  -7   3  -1    6.71    1.86
  -8  -3  -1    2.55    1.02
  -8   3  -1    0.98    0.81
   8   3   1    1.59    1.19
  -8   3  -1    0.02    0.74
  -8   3  -1    1.96    0.89
  -9  -3  -1    1.29    1.08
  -9  -3  -1    1.01    0.74
   9   3   1    0.66    1.17
  -9   3  -1   -0.12    0.69
  -9   3  -1   -0.41    0.81
  -9   3  -1   -0.12    0.93
 -10  -3  -1    3.93    1.14
 -10  -3  -1    4.15    1.29
 -10   3  -1    1.65    1.10
 -10   3  -1    3.78    1.18
  10   3   1    4.92    1.42
 -10   3  -1    2.28    1.46
 -11  -3  -1    0.85    0.94
 -11  -3  -1    2.57    1.28
 -11   3  -1    2.52    1.04
  11   3   1    1.11    1.43
 -11   3  -1   -1.05    0.79
 -11   3  -1    1.95    1.31
 -12  -3  -1   -0.29    0.90
 -12  -3  -1    3.00    1.29
 -12   3  -1    0.82    0.98
 -12   3  -1    1.88    1.23
  12   3   1    0.46    1.45
 -12   3  -1    1.35    0.83
 -13  -3  -1    0.03    1.50
 -13   3  -1    0.02    1.16
 -13   3  -1    0.27    1.05
  13   3   1    3.61    1.69
 -13   3  -1   -1.81    0.82
 -13  -4   1    0.43    0.97
 -13   4   1    1.36    1.38
  13   4  -1    3.88    1.65
 -13   4   1    2.28    1.40
 -12  -4   1    1.19    1.07
 -12   4   1   -1.42    1.17
 -12   4   1    0.07    1.26
  12   4  -1    1.85    1.39
 -11  -4   1    1.29    1.02
 -11  -4   1   -7.84    2.88
 -11   4   1   -0.15    1.04
  11   4  -1    1.46    2.07
 -11   4   1   -0.13    1.18
  11   4  -1   -1.36    1.25
 -10  -4   1    1.47    1.09
 -10  -4   1    0.85    3.16
 -10   4   1    3.14    1.21
  10   4  -1    4.90    1.26
  10   4  -1    4.80    1.82
 -10   4   1    1.86    1.29
   9  -4  -1    1.95    2.34
  -9  -4   1    1.77    2.02
  -9  -4   1    4.32    1.29
  -9   4   1    3.56    1.24
  -9   4   1    4.85    1.45
   9   4  -1    6.46    1.37
  -8  -4   1    0.69    1.08
   8  -4  -1   -0.52    1.69
  -8  -4   1   -0.80    1.49
   8   4  -1   -0.09    0.83
  -8   4   1    0.89    1.00
  -7  -4   1   -0.01    1.27
  -7  -4   1    1.12    1.61
   7  -4  -1   -1.45    1.53
  -7   4   1    0.33    0.74
   7   4  -1   -0.60    0.76
  -7   4   1    0.88    0.64
   6  -4  -1   28.75    6.23
  -6   4   1   28.35    6.05
  -6   4   1   26.14    6.09
   6   4  -1   27.21    6.07
   5  -4  -1    2.68    1.84
   5   4  -1    1.15    0.80
  -4  -4   1    3.27    1.06
   4  -4  -1    2.94    1.20
   4   4  -1    3.02    0.95
  -4   4   1    2.64    0.81
   4   4  -1    2.11    0.90
  -4   4   1    3.24    1.03
  -3  -4   1    0.15    0.81
   3  -4  -1    0.19    0.87
   3   4  -1   -0.14    0.70
  -3   4   1    0.28    0.55
  -3   4   1    0.60    0.79
   3   4  -1    0.48    0.65
   2  -4  -1   14.96    3.08
  -2  -4   1   11.96    3.08
  -2   4   1   12.92    3.07
   2   4  -1   11.12    3.05
   2   4  -1   15.71    3.08
  -2   4   1   16.61    3.13
   1  -4  -1   23.14    5.07
  -1   4   1   20.57    5.05
   1   4  -1   18.92    4.98
  -1   4   1   25.07    4.92
   0  -4  -1    5.98    1.57
   0   4  -1   11.02    1.93
   0   4   1    8.34    1.63
   0   4  -1    1.31    1.86
  -1  -4  -1    5.06    1.53
  -1   4  -1    8.21    1.54
   1   4   1    7.29    1.59
   1   4   1    8.33    1.63
  -1   4  -1    4.68    1.62
  -2   4  -1   10.04    2.74
  -2   4  -1   12.73    2.73
  -2   4  -1   13.10    2.68
  -2   4  -1   10.71    2.74
   2   4   1   13.04    2.77
  -3  -4  -1  117.29   22.64
   3   4   1   93.71   22.63
  -3   4  -1  107.73   22.63
   3   4   1   95.89   22.64
  -3   4  -1  104.05   22.64
  -3   4  -1  106.44   22.65
  -3   4  -1  101.16   22.63
  -4  -4  -1    9.14    2.16
   4   4   1    9.66    2.14
  -4   4  -1    7.74    2.04
  -4   4  -1   11.63    2.30
  -4   4  -1    9.23    2.10
   4   4   1    8.33    2.18
  -5  -4  -1   11.77    2.81
   5   4   1   11.46    2.81
  -5   4  -1   14.44    2.84
  -5   4  -1   13.87    2.88
  -5   4  -1   11.69    2.77
   5   4   1   10.53    2.79
  -6  -4  -1    2.78    1.18
  -6   4  -1    0.15    0.56
  -6   4  -1    0.19    0.66
   6   4   1    1.37    1.53
   6   4   1    0.13    1.16
  -6   4  -1    0.26    0.80
  -7  -4  -1    6.25    1.38
   7   4   1    4.86    1.17
   7   4   1    2.05    1.32
  -7   4  -1    3.50    1.04
  -7   4  -1    3.29    1.04
  -7   4  -1    1.14    0.88
  -7   4  -1    4.03    1.15
  -8  -4  -1    3.18    1.38
  -8  -4  -1    3.03    1.20
  -8   4  -1    3.98    1.04
   8   4   1    3.87    1.22
  -8   4  -1    0.70    0.83
  -8   4  -1    2.10    1.02
   8   4   1    6.06    1.60
  -9  -4  -1    2.16    1.45
  -9  -4  -1    1.84    1.05
  -9   4  -1    0.60    0.80
  -9   4  -1   -0.42    0.90
  -9   4  -1    0.46    0.85
   9   4   1    1.54    1.16
 -10  -4  -1    2.09    1.49
 -10  -4  -1   -0.23    1.46
 -10   4  -1    0.77    0.93
 -10   4  -1    0.74    1.04
  10   4   1    2.17    1.25
 -10   4  -1    0.79    0.60
 -11  -4  -1   -0.63    1.67
 -11   4  -1   -0.27    0.56
  11   4   1   -2.47    1.30
 -11   4  -1    0.47    1.15
 -11   4  -1    0.93    1.02
 -12  -4  -1    5.21    3.59
 -12  -4  -1    0.66    0.97
  12   4   1    2.04    1.48
 -12   4  -1    0.69    1.23
 -12   4  -1    0.65    0.99
 -13   4  -1    0.44    1.05
 -13   4  -1    0.83    1.23
  13   4   1    0.13    1.77
 -13  -5   1    1.49    1.21
  13   5  -1    1.91    1.62
 -13   5   1    1.89    1.43
 -12  -5   1   -0.42    1.11
 -12   5   1   -1.23    1.29
 -12   5   1   -0.37    1.23
  12   5  -1    0.37    1.24
 -11  -5   1    0.32    1.29
  11   5  -1    0.83    1.42
 -11   5   1    1.32    1.23
 -11   5   1    0.74    1.14
 -10  -5   1   -1.00    1.87
 -10   5   1   -0.94    1.18
 -10   5   1   -0.13    1.14
  10   5  -1    0.00    1.64
  10   5  -1    2.81    1.71
  -9  -5   1    4.05    1.66
   9   5  -1    5.37    1.81
  -9   5   1    4.99    1.60
   9   5  -1    4.27    1.48
  -9   5   1    5.58    1.48
  -8  -5   1   -0.75    1.20
   8   5  -1   -0.07    0.91
  -8   5   1    1.70    0.81
  -8   5   1    0.78    1.07
   8   5  -1    2.46    1.29
  -7   5   1   29.66    6.31
   7   5  -1   27.38    6.32
   7   5  -1   35.02    6.37
  -7   5   1   24.24    6.32
   6  -5  -1   17.31    4.84
   6   5  -1   15.46    3.87
   6   5  -1   20.24    3.88
  -6   5   1   16.10    3.87
  -6   5   1   16.86    3.84
  -5  -5   1   56.01   12.41
  -5   5   1   60.38   12.40
  -5   5   1   51.90   12.38
  -5   5   1   61.26   12.39
   5   5  -1   53.19   12.39
  -4  -5   1    5.89    1.59
   4  -5  -1    4.43    2.02
   4   5  -1    6.02    1.51
  -4   5   1    3.45    1.43
   4   5  -1    7.99    1.49
  -3  -5   1   34.75    7.83
   3  -5  -1   31.35    7.86
  -3   5   1   39.01    7.79
   3   5  -1   33.41    7.80
   3   5  -1   37.98    7.80
   2  -5  -1   12.69    2.87
   2   5  -1   12.94    2.80
  -2   5   1    9.90    2.84
  -2   5   1   13.10    2.76
  -1  -5   1    1.64    0.85
   1  -5  -1    1.72    1.11
   1   5  -1    3.27    0.97
  -1   5   1    4.78    1.13
  -1   5   1    4.00    0.87
   0  -5  -1    0.19    0.48
   0   5   1    0.27    0.53
   0   5   1    0.66    0.76
   0   5   1   -0.28    0.79
   0   5  -1   -0.15    0.48
   0   5   1   -0.08    0.66
   0   5  -1    0.65    0.70
  -1  -5  -1    0.15    0.47
   1   5   1    0.44    0.83
  -1   5  -1    0.36    0.66
  -1   5  -1    0.83    0.57
  -1   5  -1   -0.07    0.51
   1   5   1    0.21    0.75
   1   5   1   -0.55    0.56
  -2   5  -1    7.87    2.02
  -2   5  -1    8.44    1.98
  -2   5  -1   10.36    2.06
   2   5   1    8.07    2.04
  -2   5  -1    8.71    2.05
  -3  -5  -1   13.68    3.40
  -3   5  -1   17.58    3.45
   3   5   1   14.68    3.38
  -3   5  -1   14.12    3.34
   3   5   1   19.46    3.40
  -3   5  -1   11.85    3.38
  -4   5  -1    9.32    2.20
  -5  -5  -1   38.63    7.51
  -5   5  -1   35.72    7.45
  -5   5  -1   28.03    7.49
  -5   5  -1   30.71    7.45
  -5   5  -1   38.06    7.49
   5   5   1   31.23    7.50
  -6  -5  -1   35.94    6.65
  -6   5  -1   31.35    6.56
  -6   5  -1   31.66    6.56
  -6   5  -1   28.07    6.54
   6   5   1   32.34    6.56
  -6   5  -1   26.51    6.54
   6   5   1   22.92    6.60
   7   5   1    2.04    0.96
  -7   5  -1    1.70    0.83
   7   5   1   -0.29    1.24
  -7   5  -1    1.88    0.92
  -7   5  -1    0.59    0.80
  -7   5  -1    1.57    0.84
  -8   5  -1    2.66    1.74
  -8   5  -1    9.69    1.77
   8   5   1    9.05    1.82
  -8   5  -1    5.74    1.72
  -8   5  -1    7.14    1.72
   8   5   1    3.79    2.10
  -9  -5  -1    1.57    1.38
  -9   5  -1    0.14    0.96
   9   5   1    1.13    1.11
  -9   5  -1    3.66    0.99
  -9   5  -1    1.92    1.06
 -10  -5  -1    3.00    1.19
  10   5   1    2.27    1.88
 -10   5  -1    1.82    1.32
 -10   5  -1    1.91    1.20
 -11  -5  -1    0.18    0.98
 -11   5  -1    1.21    1.10
  11   5   1   -0.03    1.33
 -11   5  -1   -0.18    1.15
 -12  -5  -1    3.46    1.47
 -12   5  -1    5.87    1.53
  12   5   1    5.66    1.75
 -12   5  -1    4.00    1.65
 -12  -6   1    3.87    1.95
  12   6  -1    8.05    2.00
 -12   6   1    8.15    1.93
 -12   6   1    5.68    1.91
 -11  -6   1   -0.68    1.24
 -11   6   1    0.56    1.13
 -11   6   1   -0.47    1.17
  11   6  -1    0.99    1.22
  11   6  -1    1.41    3.05
 -10  -6   1    4.31    1.50
 -10   6   1    2.27    1.49
  10   6  -1    4.72    2.73
  10   6  -1    5.66    1.70
 -10   6   1    3.64    1.37
  -9  -6   1    1.31    1.57
  -9   6   1    0.17    0.95
   9   6  -1    2.20    1.47
  -9   6   1   -1.62    1.16
  -8  -6   1    1.99    1.36
   8   6  -1    0.96    1.16
  -8   6   1    0.43    1.10
  -8   6   1   -0.06    0.69
  -8   6   1    0.53    0.87
   8   6  -1    0.26    0.98
   7   6  -1   -0.15    0.98
  -7   6   1    1.43    0.80
   7   6  -1    0.52    1.08
  -7   6   1    0.20    0.91
   6   6  -1   31.85    7.42
  -6   6   1   33.53    7.40
  -6   6   1   35.73    7.42
   6   6  -1   32.82    7.41
  -5  -6   1   10.19    2.34
   5   6  -1    9.10    2.25
   5   6  -1   11.91    2.26
  -5   6   1    7.33    2.17
  -5   6   1   11.83    2.27
  -5   6   1    6.86    2.22
  -4  -6   1   -0.32    0.99
   4  -6  -1    5.77    1.82
  -4   6   1   -0.97    0.94
   4   6  -1   -0.60    0.77
   4   6  -1   -0.51    0.76
  -4   6   1   -0.25    0.68
  -4   6   1   -1.36    0.99
   3  -6  -1   -2.23    1.39
  -3  -6   1    2.08    1.31
  -3   6   1   -0.09    0.60
   3   6  -1    2.37    1.06
  -3   6   1    1.71    0.65
  -2  -6   1    1.04    0.92
   2   6  -1    1.45    0.88
  -2   6   1    1.40    0.95
   1  -6  -1    1.03    0.54
  -1  -6   1   -0.11    0.78
  -1   6   1    0.44    0.55
  -1   6   1   -0.49    0.91
   1   6  -1    0.35    0.77
   0  -6  -1   -0.35    0.47
   0   6   1   -0.57    0.91
   0   6   1    0.06    0.51
  -1  -6  -1    1.27    0.61
   1   6   1    1.14    1.17
   1   6   1    1.63    0.56
  -1   6  -1    0.26    0.65
   1   6   1    0.84    0.72
   1   6   1    1.66    0.94
  -2  -6  -1   -1.22    0.55
  -2   6  -1    0.52    0.53
   2   6   1   -0.51    0.93
  -2   6  -1   -0.34    0.57
  -2   6  -1    0.01    0.82
  -2   6  -1   -1.73    0.78
  -2   6  -1    0.26    0.69
  -3  -6  -1    3.29    0.95
  -3   6  -1    3.87    1.01
  -3   6  -1    0.67    0.91
  -3   6  -1    0.11    0.85
   3   6   1    2.58    1.06
  -3   6  -1    2.57    0.76
  -3   6  -1    3.89    1.01
  -4  -6  -1    1.30    1.04
   4   6   1   -0.65    0.80
  -4   6  -1    0.16    0.84
  -4   6  -1    1.41    0.67
  -4   6  -1    0.73    1.20
  -4   6  -1    1.13    1.21
   4   6   1    1.32    0.96
  -4   6  -1    0.67    0.84
  -5  -6  -1   21.87    4.93
  -5   6  -1   21.38    4.57
  -5   6  -1   15.25    4.49
  -5   6  -1   21.27    4.50
   5   6   1   21.45    4.59
  -5   6  -1   24.70    4.57
   5   6   1   18.16    4.53
  -6  -6  -1   28.23    5.86
  -6   6  -1   26.00    5.79
   6   6   1   25.85    5.78
  -6   6  -1   28.56    5.76
  -6   6  -1   21.67    5.76
   6   6   1   25.02    5.80
   7   6   1   18.69    4.16
  -7   6  -1   17.88    4.14
  -7   6  -1   17.86    4.16
  -7   6  -1   18.79    4.15
   7   6   1   18.42    4.28
   8   6   1    0.69    1.06
  -8   6  -1    0.38    1.16
   8   6   1    3.34    1.46
  -8   6  -1    0.14    0.97
  -8   6  -1    2.42    1.04
  -9   6  -1    3.60    1.32
  -9   6  -1    4.10    1.47
 -10  -6  -1    2.60    2.53
 -10   6  -1    0.69    1.17
 -10   6  -1    2.09    1.20
 -11  -6  -1   -0.47    1.13
  11   6   1    0.34    1.22
 -11   6  -1   -2.41    0.99
 -11   6  -1   -0.39    1.19
 -12  -6  -1    1.16    1.11
  12   6   1    1.75    1.30
 -12   6  -1    0.76    1.25
 -12   6  -1    1.48    1.19
 -11  -7   1   -0.30    1.32
  11   7  -1    0.75    1.17
 -11   7   1    0.58    1.22
 -11   7   1   -0.38    1.06
 -10  -7   1   -1.50    1.31
 -10   7   1    0.83    1.01
 -10   7   1   -1.97    1.27
  10   7  -1    0.33    2.29
  10   7  -1   -2.34    1.14
   9   7  -1   25.33    5.84
  -9   7   1   22.20    5.55
  -9   7   1   24.31    5.63
  -9   7   1   27.30    5.63
   9   7  -1   26.95    5.60
  -8  -7   1   -1.54    1.57
  -8   7   1   -0.40    0.85
  -8   7   1    1.10    0.97
   8   7  -1   -0.94    1.25
   8   7  -1   -0.63    1.27
  -8   7   1   -0.89    1.14
  -7   7   1    0.16    0.98
   7   7  -1    1.44    1.05
  -7   7   1   -0.22    0.70
   7   7  -1    0.44    1.02
  -7   7   1    0.59    0.94
   6   7  -1    3.64    1.28
  -6   7   1    3.85    1.32
   6   7  -1    4.72    1.31
  -6   7   1    2.97    1.11
  -5  -7   1    6.69    1.92
  -5   7   1    9.45    1.73
   5   7  -1    7.59    1.68
   5   7  -1    7.61    1.68
  -5   7   1    4.35    1.62
  -5   7   1    3.89    1.56
  -4  -7   1    4.26    1.48
   4   7  -1    3.35    1.20
  -4   7   1    2.92    1.04
  -4   7   1    4.83    1.18
  -4   7   1    4.04    1.22
  -3  -7   1    0.93    1.17
  -3   7   1    0.37    0.68
   3   7  -1    0.54    0.78
  -3   7   1    0.17    0.61
  -2  -7   1    0.67    1.21
   2  -7  -1   -0.22    0.72
   2   7  -1    0.81    0.57
   2   7  -1    1.71    0.82
  -2   7   1    1.13    0.62
  -2   7   1    1.54    0.97
   1  -7  -1    2.82    1.18
  -1  -7   1    4.18    1.50
   1   7  -1    7.46    1.36
  -1   7   1    4.44    1.23
  -1   7   1    6.24    1.77
   1   7  -1    4.24    1.08
   0  -7  -1    2.23    0.98
   0   7  -1    3.87    1.12
   0   7  -1    3.50    0.89
   0   7   1    4.92    1.30
   0   7   1    4.04    1.04
  -1  -7  -1    3.60    1.39
  -1   7  -1    6.77    1.32
   1   7   1    3.63    1.44
  -1   7  -1    7.16    1.42
   1   7   1    6.85    1.56
  -1   7  -1    8.37    1.86
  -1   7  -1    4.41    1.40
  -2  -7  -1    4.61    1.29
   2   7   1    5.69    1.41
  -2   7  -1    5.19    1.21
  -2   7  -1    4.27    1.13
  -2   7  -1    3.50    1.31
  -2   7  -1    3.91    1.38
   2   7   1    3.43    1.24
   2   7   1    5.06    1.12
  -3  -7  -1    0.15    0.93
  -3   7  -1   -0.17    0.55
   3   7   1    1.23    0.94
  -3   7  -1    0.04    0.70
   3   7   1   -0.12    0.81
  -3   7  -1    0.08    0.87
  -4  -7  -1   -1.04    1.08
   4   7   1   -0.73    0.85
   4   7   1    0.01    0.96
  -4   7  -1   -0.80    0.73
  -4   7  -1    0.74    0.64
  -4   7  -1   -0.14    0.98
  -4   7  -1    0.42    0.93
  -5  -7  -1    4.91    1.46
  -5   7  -1    2.58    1.06
  -5   7  -1    2.31    0.88
   5   7   1    2.48    1.01
  -5   7  -1    1.53    0.81
  -6  -7  -1   11.21    2.50
   6   7   1    9.76    2.29
  -6   7  -1    7.15    2.20
   6   7   1   10.03    2.32
   7   7   1    2.59    1.04
   7   7   1    1.51    1.17
  -7   7  -1    0.21    1.00
  -7   7  -1    0.24    0.94
  -7   7  -1    0.14    1.12
  -8   7  -1   -0.37    1.05
   8   7   1    2.94    1.57
  -8   7  -1    1.53    1.02
  -8   7  -1    1.58    1.03
  -9  -7  -1    0.52    2.00
  -9   7  -1    1.01    1.10
  -9   7  -1    2.01    1.05
  -9   7  -1    0.68    1.09
 -10  -7  -1    0.77    1.92
 -10   7  -1    0.22    1.19
 -10   7  -1    3.80    1.18
  10   7   1    0.19    1.18
 -11  -7  -1    0.85    1.29
 -11   7  -1   -1.39    1.25
  11   7   1   -0.44    1.06
 -11   7  -1    1.58    1.02
 -11  -8   1   -0.45    1.64
 -11   8   1   -0.33    1.19
 -11   8   1    1.35    1.09
  11   8  -1   -4.11    1.06
 -10  -8   1    1.88    1.43
 -10   8   1   -0.78    1.23
  10   8  -1   -0.38    1.14
 -10   8   1    0.51    1.01
  10   8  -1   -0.13    1.99
  -9  -8   1    2.24    2.33
  -9   8   1    2.17    1.42
  -9   8   1    4.18    1.36
   9   8  -1    2.15    1.69
  -9   8   1    2.97    1.25
   9   8  -1   -0.32    1.27
  -8  -8   1    5.43    3.21
  -8   8   1    8.69    2.01
  -8   8   1    6.88    2.20
  -8   8   1    6.86    2.12
   8   8  -1    8.57    2.15
   8   8  -1    9.33    2.27
  -7   8   1   -0.62    1.06
  -7   8   1    1.27    1.00
   7   8  -1    0.48    1.31
  -7   8   1   -0.13    0.80
   6   8  -1    2.65    1.13
  -6   8   1    1.95    1.07
  -6   8   1    0.94    0.87
  -6   8   1    3.23    1.44
   6   8  -1    0.31    0.97
  -5  -8   1   -1.55    1.91
  -5   8   1    0.13    0.88
  -5   8   1   -0.02    0.93
  -5   8   1    0.62    0.69
   5   8  -1   -0.20    0.96
  -5   8   1    0.30    0.69
  -4  -8   1   -1.71    1.50
  -4   8   1    0.33    0.87
  -4   8   1   -0.72    0.81
  -4   8   1    0.17    0.59
   4   8  -1    0.89    0.87
  -3  -8   1    1.30    1.62
  -3   8   1    0.29    0.61
   3   8  -1    0.03    0.60
   3   8  -1    0.95    0.83
  -3   8   1   -0.26    0.75
  -3   8   1    0.12    0.76
  -2  -8   1    1.23    2.26
  -2   8   1    4.43    1.25
   2   8  -1    5.10    1.35
   2   8  -1    5.46    1.23
  -2   8   1    6.25    1.54
   1  -8  -1    1.19    0.93
  -1  -8   1   -0.01    2.24
  -1   8   1    2.00    0.70
   1   8  -1    1.70    0.87
   1   8  -1    1.91    0.62
  -1   8   1    2.27    1.11
   0   8   1    8.27    2.05
   0   8  -1    7.85    1.78
   0   8   1    7.17    1.78
   0   8  -1    8.04    1.89
  -1  -8  -1    0.66    0.76
  -1   8  -1    1.11    0.78
  -1   8  -1    0.01    0.90
   1   8   1    0.46    0.49
   1   8   1    0.21    1.11
  -1   8  -1    0.66    0.48
  -2  -8  -1    4.80    1.38
  -2   8  -1    5.53    1.43
   2   8   1    5.96    1.46
  -2   8  -1    3.75    1.14
  -2   8  -1    5.76    1.36
   2   8   1    3.59    1.12
  -2   8  -1    4.83    1.25
  -3  -8  -1    2.85    1.28
  -3   8  -1    1.02    0.85
  -3   8  -1    1.56    0.64
   3   8   1    1.62    0.63
   3   8   1    1.57    1.00
  -3   8  -1    0.31    1.00
  -3   8  -1    2.99    0.98
  -4  -8  -1    3.14    1.83
  -4   8  -1    4.65    1.35
  -4   8  -1    5.06    1.32
  -4   8  -1    3.43    1.04
   4   8   1    2.12    0.97
   4   8   1    4.29    1.30
  -4   8  -1    4.66    1.26
   4   8   1    3.61    1.22
  -5  -8  -1    2.79    1.48
  -5   8  -1    1.83    1.10
   5   8   1    0.56    0.99
   5   8   1    2.70    1.03
  -5   8  -1    0.96    0.76
  -5   8  -1   -0.12    0.68
  -5   8  -1    1.56    1.00
  -6  -8  -1    0.53    1.40
  -6   8  -1    1.73    0.88
   6   8   1    0.68    1.07
   6   8   1    0.32    0.91
  -6   8  -1   -0.10    1.33
  -6   8  -1   -0.06    1.06
  -6   8  -1    2.27    1.13
   7   8   1   -0.60    1.24
   7   8   1    0.48    0.96
  -7   8  -1    0.15    0.97
  -7   8  -1    0.72    1.10
  -7   8  -1    0.56    1.02
   8   8   1    0.41    2.13
  -8   8  -1    4.71    1.68
  -8   8  -1    9.20    1.73
  -8   8  -1    5.75    1.74
  -9  -8  -1   -2.64    2.01
  -9   8  -1    0.98    1.22
   9   8   1    2.45    1.06
  -9   8  -1    0.76    0.97
  -9   8  -1    2.77    1.08
 -10  -8  -1    1.94    2.05
 -10   8  -1    0.16    1.30
  10   8   1    2.11    1.01
 -10   8  -1    1.45    1.30
 -10  -9   1    1.07    1.54
 -10   9   1   -0.72    1.00
 -10   9   1    0.64    1.29
  -9  -9   1    2.03    2.30
  -9   9   1    3.57    1.33
  -9   9   1    3.84    1.52
   9   9  -1    4.57    1.98
  -9   9   1    3.09    1.36
  -8  -9   1   -0.51    2.13
  -8   9   1    0.53    1.08
   8   9  -1    1.00    1.46
  -8   9   1   -3.71    1.27
  -8   9   1   -0.66    0.99
   7   9  -1   -0.73    1.43
  -7   9   1    1.36    1.01
  -7   9   1    0.34    0.97
  -7   9   1    0.04    1.00
  -6   9   1   -0.98    1.55
  -6   9   1    1.03    1.06
  -6   9   1    0.38    0.97
  -5  -9   1    3.89    2.25
  -5   9   1    9.22    1.64
  -5   9   1    8.18    1.67
  -5   9   1    4.51    1.56
  -5   9   1    4.62    1.48
   5   9  -1    3.80    1.35
   5   9  -1    3.37    1.70
   4   9  -1    1.15    0.89
  -4   9   1    0.83    0.76
  -4   9   1   -0.36    0.97
  -4   9   1    1.12    1.04
   4   9  -1   -0.61    0.69
  -4   9   1    1.92    1.15
  -3  -9   1   -1.03    2.25
   3   9  -1    0.02    0.59
  -3   9   1    1.61    0.89
  -3   9   1    1.37    0.92
   3   9  -1    1.13    0.88
  -3   9   1    1.16    1.20
  -3   9   1    0.82    0.68
  -2  -9   1    1.87    2.92
   2   9  -1    0.24    0.82
  -2   9   1    0.51    0.86
  -2   9   1   -0.01    0.60
   2   9  -1   -0.02    0.50
  -1   9   1    2.55    1.19
   1   9  -1   -0.04    0.85
   1   9  -1    1.60    0.61
  -1   9   1    1.21    0.62
   1   9  -1    2.03    0.88
   0  -9  -1   11.04    2.69
   0   9  -1    9.51    2.50
   0   9   1   10.93    2.53
   0   9   1   12.50    2.74
   0   9  -1   13.53    2.63
   0   9  -1   11.32    2.59
  -1  -9  -1    1.96    1.17
  -1   9  -1   -0.11    0.81
   1   9   1    1.94    1.21
   1   9   1    1.42    0.57
  -1   9  -1    1.17    0.89
  -1   9  -1    1.21    0.57
  -2  -9  -1    2.47    1.36
  -2   9  -1    0.64    0.78
   2   9   1    0.17    0.50
   2   9   1    1.48    1.19
  -2   9  -1    0.15    0.56
  -2   9  -1   -0.08    0.84
  -3  -9  -1    2.57    1.62
  -3   9  -1    4.08    1.08
  -3   9  -1    1.52    0.71
   3   9   1    0.77    0.63
   3   9   1    0.94    1.19
  -3   9  -1    3.28    1.17
  -3   9  -1    2.17    0.91
  -4  -9  -1    2.47    1.70
  -4   9  -1    1.83    1.16
  -4   9  -1    2.29    0.93
   4   9   1    2.21    1.26
  -4   9  -1    2.87    1.01
  -4   9  -1    5.09    1.20
  -5  -9  -1    0.65    1.46
  -5   9  -1   -0.98    1.46
  -5   9  -1    1.29    1.01
   5   9   1   -0.45    1.16
  -5   9  -1    0.26    0.68
  -5   9  -1    1.02    1.09
   5   9   1    0.19    0.55
  -6  -9  -1    3.19    2.00
   6   9   1    4.38    1.36
  -6   9  -1    7.25    1.62
  -6   9  -1    6.87    1.49
  -6   9  -1    4.54    1.33
   6   9   1    1.13    1.30
   6   9   1   -1.04    2.26
  -6   9  -1    4.95    1.82
  -7   9  -1   -2.33    0.98
  -7   9  -1   -0.62    0.90
   7   9   1   -0.17    0.97
  -7   9  -1    2.42    1.12
   7   9   1   -2.13    1.48
   7   9   1   -0.49    0.61
  -8   9  -1    0.69    1.04
   8   9   1    1.83    1.01
  -8   9  -1    1.40    0.99
  -8   9  -1   -0.09    1.14
   8   9   1   -0.16    2.52
  -9  -9  -1    1.86    1.98
   9   9   1    2.19    1.02
  -9   9  -1    0.83    0.97
  -9   9  -1    0.26    0.97
  -9   9  -1    0.09    1.18
  -8 -10   1   -1.18    2.36
   8  10  -1   -0.77    1.66
  -8  10   1    0.82    1.09
   8  10  -1    0.70    0.67
  -8  10   1    1.16    1.26
  -8  10   1    1.11    1.07
   7  10  -1    1.01    0.68
  -7  10   1    0.70    1.15
  -7  10   1    1.10    0.96
   7  10  -1    0.48    1.34
  -7  10   1    0.04    1.28
   6  10  -1    2.56    1.29
  -6  10   1    2.56    1.01
  -6  10   1    2.88    1.32
  -6  10   1    0.66    1.07
   6  10  -1    1.00    0.75
  -5 -10   1   -5.95    2.62
  -5  10   1    3.85    1.31
  -5  10   1   -0.67    1.02
   5  10  -1    0.84    1.09
  -5  10   1    0.49    0.80
   5  10  -1   -0.93    0.56
  -5  10   1    0.89    1.05
  -4 -10   1   -3.23    3.81
   4  10  -1    0.09    1.36
  -4  10   1   -0.17    0.93
   4  10  -1    0.11    0.58
  -4  10   1   -0.21    0.75
  -4  10   1    1.44    1.33
   3  10  -1   -0.55    0.91
  -3  10   1    0.49    0.77
  -3  10   1   -1.32    0.87
  -3  10   1    0.42    1.27
   3  10  -1   -0.57    0.69
   2  10  -1    0.11    0.83
   2  10  -1    0.58    0.58
  -2  10   1   -0.29    0.73
  -2  10   1   -0.37    0.96
  -2  10   1   -0.03    0.57
   2  10  -1    1.07    1.24
  -1  10   1   -1.00    0.52
  -1  10   1   -0.77    0.85
   1  10  -1    1.08    0.89
   1  10  -1    0.98    0.51
   1  10  -1   -0.04    1.00
   0  10   1    1.34    0.60
   0  10  -1    0.46    0.92
   0  10  -1    2.12    0.98
   0  10   1    0.22    1.21
   0  10  -1    0.92    0.57
  -1  10  -1    0.19    0.87
   1  10   1    0.31    0.52
  -1  10  -1    0.49    0.55
   1  10   1    0.72    1.18
  -1  10  -1    1.12    0.84
  -2 -10  -1    4.14    2.05
  -2  10  -1    3.20    1.07
   2  10   1    2.61    0.75
   2  10   1    2.48    1.34
  -2  10  -1    2.82    1.13
  -2  10  -1    1.55    0.77
  -3 -10  -1   -2.06    1.91
  -3  10  -1    0.66    0.81
   3  10   1   -2.46    1.15
   3  10   1   -0.17    0.51
  -4 -10  -1    0.03    1.83
   4  10   1   -0.33    1.19
  -4  10  -1    1.00    0.91
  -4  10  -1   -0.98    1.20
  -4  10  -1   -0.48    0.59
   4  10   1    0.27    0.52
  -5  10  -1    4.01    1.21
   5  10   1    0.51    0.57
   5  10   1    2.08    2.24
  -5  10  -1    1.98    1.00
  -5  10  -1    0.91    0.77
  -5  10  -1    0.98    0.97
  -6 -10  -1    5.93    2.78
   6  10   1    2.68    1.01
  -6  10  -1    8.75    1.56
  -6  10  -1    4.75    1.38
  -6  10  -1    2.85    1.24
   6  10   1    3.23    1.75
   7  10   1    1.12    0.79
  -7  10  -1    3.08    1.07
  -7  10  -1    2.15    1.22
   7  10   1    4.23    1.97
  -7  10  -1    4.78    1.30
   8  10   1    0.20    0.65
  -8  10  -1   -1.15    1.02
  -8  10  -1    0.40    0.89
  -8  10  -1    0.10    1.13
  -7 -11   1   -0.57    4.01
  -7  11   1    2.83    1.57
   7  11  -1    1.21    0.62
   7  11  -1    0.18    1.79
  -7  11   1    0.73    0.93
  -7  11   1    1.64    1.19
  -6  11   1    2.09    1.57
  -6  11   1    0.75    0.93
  -6  11   1    1.78    0.93
   6  11  -1    1.03    1.40
   6  11  -1   -0.31    0.56
   5  11  -1    4.02    1.30
  -5  11   1    1.48    0.91
  -5  11   1   -0.50    2.00
   5  11  -1    1.32    0.68
  -4  11   1   -1.33    0.90
   4  11  -1    1.23    1.11
  -4  11   1    0.04    0.97
   4  11  -1    0.00    0.56
  -4  11   1    0.29    0.67
  -3  11   1    0.13    0.96
  -3  11   1    0.68    0.64
   3  11  -1    2.85    1.10
   3  11  -1    0.49    0.58
  -3  11   1    0.00    0.91
   2  11  -1    0.89    0.67
   2  11  -1    3.66    1.11
  -2  11   1    1.48    0.73
  -2  11   1    1.34    0.97
  -2  11   1    2.12    1.15
   1  11  -1    0.74    0.95
   1  11  -1    0.35    0.57
  -1  11   1   -0.27    0.99
  -1  11   1    0.99    0.89
   1  11  -1    3.10    1.41
  -1  11   1    0.03    0.55
   0  11   1    0.81    0.91
   0  11   1    0.47    0.53
   0  11  -1   -0.22    0.91
   0  11  -1   -0.39    0.55
   0  11  -1   -0.48    1.04
   0  11   1   -0.15    0.97
   1  11   1    0.05    0.51
  -1  11  -1   -0.78    1.30
  -1  11  -1    0.74    0.91
   1  11   1    0.39    1.22
  -1  11  -1    0.66    0.54
  -2 -11  -1   -2.87    2.52
  -2  11  -1   -0.53    0.84
  -2  11  -1    0.67    0.95
  -2  11  -1   -0.34    0.56
   2  11   1    0.17    0.51
   2  11   1   -1.40    1.27
  -3 -11  -1    1.87    3.76
  -3  11  -1    0.86    0.83
   3  11   1   -0.36    1.29
   3  11   1    0.72    0.50
  -3  11  -1    0.23    0.99
  -3  11  -1    0.77    0.65
  -4 -11  -1   -3.27    3.61
  -4  11  -1   -0.02    0.62
  -4  11  -1   -0.47    0.93
   4  11   1    0.09    1.30
  -4  11  -1    0.53    0.95
   4  11   1    0.38    0.50
  -5 -11  -1    0.42    2.07
   5  11   1    0.09    1.51
  -5  11  -1    0.36    1.00
   5  11   1    0.13    0.50
  -5  11  -1    0.74    0.87
  -5  11  -1    0.91    0.78
  -6  11  -1   -2.87    1.43
   6  11   1    0.01    0.50
  -6  11  -1    0.28    0.84
   6  11   1   -4.91    1.74
  -6  11  -1    0.29    1.00
  -7  11  -1    0.99    1.00
   7  11   1   -0.32    0.56
  -7  11  -1   -0.54    0.81
  -7  11  -1    1.03    1.48
   5  12  -1    0.20    1.30
  -5  12   1   -0.17    1.01
  -4  12   1    1.73    0.87
   4  12  -1    2.07    1.25
   4  12  -1    1.61    0.72
  -4  12   1    2.67    1.02
  -3  12   1    0.47    0.94
   3  12  -1   -0.48    0.99
  -3  12   1    0.20    0.61
   3  12  -1    0.97    0.56
  -3  12   1    0.51    0.92
  -2  12   1   -0.41    0.93
   2  12  -1    0.57    0.58
  -2  12   1   -0.16    0.62
  -2  12   1    0.05    0.91
   2  12  -1   -0.25    0.95
   1  12  -1    2.09    0.97
  -1  12   1    0.08    0.93
   1  12  -1   -0.16    0.55
  -1  12   1    0.82    0.96
  -1  12   1   -0.34    0.53
   0  12   1   -0.36    0.51
   0  12  -1    0.11    0.95
   0  12  -1    3.00    1.53
   0  12   1    0.19    0.99
   0  12  -1    0.55    0.55
   0  12   1   -0.30    1.05
  -1  12  -1    1.25    0.79
   1  12   1    0.78    1.11
  -1  12  -1    0.50    0.60
   1  12   1   -0.12    0.49
  -1  12  -1    1.50    1.30
   1  12   1   -0.06    1.03
  -2  12  -1   -1.21    1.04
  -2  12  -1    0.03    0.83
   2  12   1    0.27    1.30
   2  12   1    1.56    1.12
   2  12   1    0.40    0.50
  -2  12  -1   -0.12    0.63
  -3  12  -1    0.74    0.87
  -3  12  -1   -0.28    0.63
   3  12   1    1.08    1.18
  -3  12  -1    0.29    1.08
   3  12   1    2.36    1.87
   3  12   1    0.22    0.51
  -4 -12  -1   -0.41    3.23
   4  12   1    0.56    1.21
   4  12   1    0.37    0.49
  -4  12  -1   -0.40    0.78
  -4  12  -1    0.38    0.70
  -4  12  -1    0.75    0.95
  14   0  -2   -0.48    1.85
 -14   0   2    0.76    1.10
 -13   0   2    0.50    1.26
  13   0  -2    1.99    1.55
 -13   0   2   -0.35    1.15
 -12   0   2    0.05    1.07
 -12   0   2    2.05    1.21
 -11   0   2    1.54    1.11
  11   0  -2   -0.42    1.32
 -11   0   2    0.65    1.61
 -11   0   2    2.36    1.19
  10   0  -2   17.81    3.62
 -10   0   2   13.35    3.48
 -10   0   2   15.44    3.51
 -10   0   2   15.98    3.58
   9   0  -2    2.82    1.25
  -9   0   2    1.93    1.30
  -9   0   2    0.97    0.71
   8   0  -2    3.32    1.09
  -8   0   2    3.19    1.32
  -8   0   2    2.90    0.91
  -7   0   2    9.94    2.28
   7   0  -2    8.52    2.19
  -6   0   2    1.02    0.95
   6   0  -2   -0.04    0.76
  -6   0   2   -0.18    0.59
   5   0  -2   22.93    5.64
  -5   0   2   27.51    5.62
  -4   0   2    6.36    1.37
   4   0  -2    4.51    1.42
   3   0  -2    8.91    2.18
  -3   0   2    9.88    2.16
   2   0  -2    5.74    1.42
  -2   0   2    6.22    1.46
  -1   0   2    0.48    0.70
   1   0  -2    0.93    0.48
   0   0   2 1000.00  216.67
   0   0  -2  987.48  216.67
   3   0   2    9.64    2.23
  -4   0  -2   26.64    5.95
  -4   0  -2   27.00    5.93
  -5   0  -2   21.59    5.09
  -5   0  -2   23.58    5.05
   6   0   2    0.74    1.07
  -6   0  -2    3.82    1.10
  -6   0  -2    1.92    0.91
   7   0   2    5.08    1.81
  -7   0  -2    8.52    1.87
  -7   0  -2    7.06    1.72
   8   0   2    2.91    1.21
  -8   0  -2    2.71    0.97
  -8   0  -2    0.57    1.15
   9   0   2    0.21    1.35
  -9   0  -2    2.34    1.03
  -9   0  -2    1.30    1.11
 -10   0  -2    2.75    1.40
 -10   0  -2    4.31    1.29
  11   0   2    6.67    1.92
 -11   0  -2    3.23    1.53
 -11   0  -2    3.69    1.37
  12   0   2    1.15    2.61
 -12   0  -2    1.37    1.26
 -12   0  -2    1.31    1.06
 -13   0  -2    1.84    0.99
  13   0   2   -4.26    2.89
 -14  -1   2   -1.15    1.15
  14  -1  -2   -0.89    2.20
 -14   1   2   -1.48    1.15
  14   1  -2   -1.95    1.69
 -14   1   2    0.36    1.41
 -13  -1   2   -0.68    1.09
  13  -1  -2    1.16    1.71
 -13   1   2   -1.00    1.18
  13   1  -2   -3.15    1.39
 -13   1   2    0.94    1.18
  12  -1  -2    2.31    1.65
 -12   1   2    1.58    1.20
 -12   1   2    2.62    2.24
  12   1  -2   -0.35    1.45
 -11  -1   2    5.33    1.40
 -11  -1   2    3.02    1.43
 -11  -1   2    1.69    1.40
  11  -1  -2    4.82    1.77
 -11   1   2    5.67    1.54
 -11   1   2    4.57    1.42
  11   1  -2    6.28    1.60
 -10  -1   2    1.72    1.42
  10  -1  -2    5.30    1.51
 -10  -1   2    2.76    1.23
 -10  -1   2    3.05    1.08
 -10   1   2    4.12    1.35
  10   1  -2    5.37    1.34
  -9  -1   2    1.21    0.76
   9  -1  -2    1.82    1.24
  -9  -1   2    2.70    1.39
   9   1  -2    0.83    0.95
  -9   1   2    1.75    1.11
  -9   1   2    2.79    0.91
  -8  -1   2    3.37    1.07
   8  -1  -2    4.18    1.34
  -8  -1   2    5.76    1.59
  -8   1   2    3.33    1.08
   8   1  -2    4.25    1.21
  -8   1   2    4.24    1.30
  -7  -1   2    5.03    1.57
   7  -1  -2    1.68    1.27
  -7  -1   2    2.90    1.16
  -7   1   2    4.61    1.28
  -7   1   2    4.52    1.09
   7   1  -2    5.08    1.17
  -6  -1   2    8.98    2.15
  -6  -1   2   11.27    2.37
   6  -1  -2    9.52    2.27
  -6   1   2   10.03    2.18
   6   1  -2    8.31    2.18
   5  -1  -2    1.90    0.97
  -5  -1   2    1.72    0.65
  -5   1   2    0.66    0.88
  -5   1   2    1.32    0.69
   5   1  -2    1.28    0.74
   4  -1  -2   18.30    3.95
  -4  -1   2   15.45    3.88
   4   1  -2   18.79    3.90
  -4   1   2   18.08    3.91
   3  -1  -2   10.47    2.32
  -3  -1   2    8.61    2.29
   3   1  -2   14.74    2.53
   2  -1  -2    7.03    1.56
  -2  -1   2    6.35    1.58
   2   1  -2    6.28    1.52
   1  -1  -2  100.33   20.93
  -1  -1   2   87.98   20.94
  -1   1   2   91.91   20.92
   1   1  -2  102.74   20.92
   0  -1  -2   24.68    5.14
   0   1   2   22.27    5.13
  -1  -1  -2    0.28    0.28
   1   1   2    0.44    0.46
  -2  -1  -2    0.86    0.38
   2   1   2    0.35    0.62
  -3  -1  -2    0.22    0.87
  -3  -1  -2    0.31    0.52
   3   1   2    0.52    0.69
  -3   1  -2    1.10    0.74
  -3   1  -2    0.53    0.69
  -4  -1  -2    1.13    0.81
  -4  -1  -2    2.14    1.01
  -4   1  -2    1.80    0.90
   4   1   2    2.50    0.89
  -4   1  -2    2.22    0.82
  -5  -1  -2   -0.09    0.72
  -5  -1  -2    0.53    0.92
  -5   1  -2    0.84    0.88
  -5   1  -2    0.09    0.71
   5   1   2   -1.38    0.81
  -6  -1  -2    0.40    0.85
  -6  -1  -2    0.28    0.81
  -6  -1  -2    1.78    1.00
  -6   1  -2    2.33    0.89
  -6   1  -2    1.47    0.98
   7  -1   2   -1.20    1.21
  -7  -1  -2   -0.23    0.57
  -7  -1  -2   -0.10    1.03
  -7  -1  -2    0.39    0.85
  -7   1  -2    0.72    0.77
  -7   1  -2   -0.82    1.00
   7   1   2   -0.49    0.88
  -8  -1  -2   -0.10    1.16
   8  -1   2    3.35    1.35
  -8  -1  -2    1.40    1.03
  -8   1  -2    1.94    0.85
   8   1   2    1.82    1.08
  -8   1  -2    0.49    1.04
  -9  -1  -2    0.93    0.96
   9  -1   2   -3.21    1.52
  -9  -1  -2    0.45    1.20
  -9   1  -2   -0.71    0.83
  -9   1  -2    0.39    1.05
   9   1   2    1.63    1.25
  10  -1   2    4.29    1.88
 -10  -1  -2    1.63    1.16
 -10  -1  -2    2.47    1.36
 -10   1  -2    1.04    0.94
  10   1   2   -2.21    1.33
 -10   1  -2    0.34    1.07
  11  -1   2    2.23    3.52
 -11  -1  -2   -0.46    1.03
  11   1   2    1.61    1.55
 -11   1  -2    1.72    1.33
 -11   1  -2    2.45    1.00
 -12  -1  -2    1.63    1.02
 -12   1  -2   -0.04    0.72
 -12   1  -2    1.42    1.15
 -12   1  -2    0.75    1.05
  12   1   2    0.61    1.80
 -13  -1  -2    1.11    0.98
 -13   1  -2    0.10    0.78
  13   1   2   -4.63    2.01
 -13   1  -2    3.78    1.03
 -13   1  -2    3.18    1.21
 -13  -2   2    1.89    0.96
  13  -2  -2   -2.94    2.12
 -13  -2   2   -1.07    1.32
 -13   2   2    0.80    1.23
  13   2  -2   -1.99    1.37
 -13   2   2    0.49    1.26
  12  -2  -2    2.88    1.81
 -12  -2   2    2.62    1.79
 -12  -2   2   -0.78    0.92
 -12   2   2   -0.92    1.09
 -12   2   2   -1.12    1.15
  12   2  -2    0.51    1.51
 -11  -2   2    1.42    1.07
 -11  -2   2    0.08    1.28
  11  -2  -2   -1.35    1.42
  11   2  -2    1.91    1.28
 -11   2   2    1.27    1.29
 -11   2   2    0.53    1.03
  10  -2  -2    1.06    1.77
 -10  -2   2    3.17    1.06
 -10  -2   2    1.35    0.94
  10   2  -2    3.25    1.17
 -10   2   2    2.55    1.14
  -9  -2   2    0.82    0.75
  -9  -2   2   -0.62    1.00
   9  -2  -2    2.58    1.29
  -9  -2   2    1.30    0.95
  -9   2   2   -0.23    0.94
   9   2  -2    2.56    0.92
  -8  -2   2   11.08    2.51
  -8  -2   2    6.98    2.58
   8  -2  -2   12.57    2.65
  -8   2   2   10.45    2.66
   8   2  -2   16.11    2.78
  -7  -2   2    0.85    1.09
   7  -2  -2    1.05    1.04
  -7  -2   2    1.37    1.10
   7   2  -2    0.52    0.72
  -7   2   2   -0.18    0.90
  -6  -2   2    2.18    0.73
  -6   2   2    1.10    0.49
   6   2  -2    4.86    0.83
  -6   2   2    2.79    0.89
  -5  -2   2    7.18    1.43
   5  -2  -2    6.09    1.39
  -5   2   2    3.74    1.32
  -5   2   2    4.30    1.22
   5   2  -2    4.82    1.28
   4  -2  -2    6.99    1.79
  -4  -2   2   12.00    2.43
   4   2  -2    6.66    1.72
   3  -2  -2   17.34    3.72
   3   2  -2   18.37    3.70
  -3   2   2   15.05    3.68
  -3   2   2   15.99    3.71
   2  -2  -2   13.78    3.48
   2   2  -2   16.90    3.45
   1  -2  -2   47.64   10.11
  -1   2   2   44.93   10.11
   0  -2  -2    0.23    0.59
   0   2   2    0.06    0.47
  -1  -2  -2   25.84    5.86
   1   2   2   27.93    5.88
   2   2   2   59.96   13.11
  -3  -2  -2   30.08    6.22
  -3   2  -2   29.28    6.26
  -3   2  -2   28.63    6.24
  -3   2  -2   26.39    6.21
   3   2   2   27.33    6.25
  -4  -2  -2    2.03    0.77
  -4  -2  -2    2.03    0.77
   4   2   2    0.82    1.61
  -4   2  -2    1.47    0.93
  -4   2  -2    1.89    0.83
  -5  -2  -2    8.87    2.02
  -5   2  -2    7.42    2.00
   5   2   2    8.97    2.07
  -6  -2  -2    2.45    1.15
  -6  -2  -2    1.39    0.84
   6   2   2    1.30    0.96
  -6   2  -2   -1.29    1.09
   7  -2   2   -0.15    2.36
  -7  -2  -2    6.45    1.75
  -7  -2  -2    5.90    1.93
  -7  -2  -2    8.64    1.74
  -7   2  -2    8.20    1.77
   7   2   2    5.39    1.78
  -7   2  -2    7.32    1.76
  -8  -2  -2    0.23    0.62
  -8  -2  -2   -1.14    1.01
  -8   2  -2   -0.08    0.82
  -8   2  -2    0.53    0.95
   8   2   2    0.38    1.01
  -9  -2  -2    1.42    0.85
  -9  -2  -2    2.11    1.12
  -9   2  -2    2.91    1.01
  -9   2  -2    2.06    1.11
   9   2   2    1.20    1.34
 -10  -2  -2    2.78    1.07
  10   2   2    1.69    1.42
 -10   2  -2    1.13    0.95
 -10   2  -2    3.50    1.22
 -10   2  -2    1.10    0.77
 -11  -2  -2    3.08    1.11
 -11   2  -2    0.70    0.84
 -11   2  -2    1.65    1.27
  11   2   2   -0.17    1.48
 -11   2  -2    2.48    1.04
 -12  -2  -2    0.83    0.94
 -12   2  -2    0.89    0.99
 -12   2  -2    0.35    1.06
 -12   2  -2   -0.34    0.78
 -13  -2  -2   -1.31    1.02
 -13   2  -2    0.44    0.98
 -13   2  -2    0.49    1.06
  13   2   2    3.45    1.89
 -13   2  -2    0.69    0.73
 -13  -3   2   -1.02    2.16
  13  -3  -2    3.99    2.46
 -13  -3   2    1.93    1.14
  13   3  -2    6.91    2.87
  13   3  -2    2.86    1.69
 -13   3   2    1.82    1.48
 -13   3   2    3.59    1.41
 -12  -3   2   -0.38    0.91
 -12  -3   2   -0.02    1.66
 -12   3   2    0.72    1.25
 -12   3   2   -0.80    1.18
  12   3  -2    1.49    1.36
  11  -3  -2   -0.40    1.83
 -11  -3   2    0.13    0.93
 -11  -3   2    0.72    1.32
 -11   3   2   -0.01    1.18
 -10  -3   2   -0.23    0.83
 -10  -3   2    0.15    1.33
  10   3  -2   -0.28    0.95
 -10   3   2    0.01    1.06
   9  -3  -2   -0.76    1.29
  -9  -3   2    0.69    0.76
  -9  -3   2    1.86    1.15
  -9   3   2    1.43    1.01
   9   3  -2    0.50    0.89
  -8  -3   2    2.92    1.00
   8  -3  -2    2.27    1.29
  -8  -3   2    5.24    1.30
   8   3  -2    3.29    1.05
  -8   3   2    2.68    1.22
  -7  -3   2   22.16    5.27
   7  -3  -2   24.94    5.26
  -7   3   2   22.89    5.20
  -6  -3   2    3.92    1.27
   6  -3  -2    4.37    1.28
  -6   3   2    2.60    1.18
   6   3  -2    3.57    1.06
  -6   3   2    3.28    1.08
  -6   3   2    3.92    1.02
   5  -3  -2    1.99    1.01
  -5  -3   2    0.44    0.97
   5   3  -2    0.60    0.69
  -5   3   2    0.51    0.77
  -5   3   2    0.43    0.76
  -5   3   2    1.68    0.61
   4  -3  -2   56.25   11.67
  -4   3   2   50.47   11.64
   4   3  -2   53.20   11.65
   3  -3  -2   90.36   20.04
   3   3  -2   85.62   20.02
  -3   3   2   99.31   20.03
  -2  -3   2    5.16    1.57
   2  -3  -2    7.14    1.41
   2   3  -2    4.39    1.31
  -2   3   2    5.17    1.31
  -2   3   2    5.77    1.33
  -2   3   2    5.28    1.44
   1  -3  -2    0.89    0.65
   1   3  -2    0.56    0.67
  -1   3   2    0.85    0.55
   1   3  -2    1.53    0.65
   0  -3  -2   15.47    3.97
   0   3  -2   20.25    4.06
   0   3   2   20.47    4.00
  -1  -3  -2   35.75    8.45
   1   3   2   41.76    8.46
  -2  -3  -2   -0.25    0.42
  -2   3  -2   -0.29    0.84
  -2   3  -2    0.57    0.71
  -2   3  -2   -0.91    0.84
   2   3   2   -0.72    0.63
  -2   3  -2    0.16    1.07
  -3  -3  -2  118.25   23.35
   3   3   2  107.51   23.35
  -3   3  -2  105.74   23.34
  -3   3  -2   94.51   23.33
  -3   3  -2  112.11   23.35
  -3   3  -2  103.91   23.35
  -4  -3  -2   30.10    7.21
  -4  -3  -2   34.66    7.21
  -4   3  -2   32.67    7.28
  -4   3  -2   36.36    7.22
   4   3   2   35.07    7.22
  -4   3  -2   30.18    7.19
  -4   3  -2   29.36    7.23
  -4   3  -2   33.19    7.18
  -5  -3  -2    2.50    1.01
  -5  -3  -2    3.07    0.99
  -5   3  -2    1.95    0.98
  -5   3  -2    4.14    1.07
   5   3   2    5.15    1.11
  -5   3  -2    2.59    0.87
  -6  -3  -2   -0.96    0.71
  -6   3  -2   -0.30    0.68
  -6   3  -2   -0.62    0.56
   6   3   2   -0.04    0.91
  -6   3  -2   -0.34    0.74
  -7  -3  -2    1.06    0.85
  -7   3  -2    0.29    0.83
   7   3   2   -0.45    0.96
  -7   3  -2    0.30    0.77
  -8  -3  -2    0.64    0.99
  -8  -3  -2    1.60    0.98
   8   3   2    0.34    1.09
  -8   3  -2    0.83    0.80
  -8   3  -2    0.52    0.88
  -8   3  -2    1.36    0.76
  -9  -3  -2    2.40    0.97
  -9  -3  -2    1.26    0.80
  -9   3  -2    0.66    0.80
  -9   3  -2    2.45    0.93
  -9   3  -2    0.34    1.00
   9   3   2    0.72    1.21
 -10  -3  -2    2.95    1.08
 -10  -3  -2    1.11    0.91
 -10   3  -2    0.50    0.84
  10   3   2    3.18    1.32
 -10   3  -2    0.30    0.86
 -10   3  -2    1.63    1.07
 -11  -3  -2    0.49    1.14
 -11  -3  -2    2.24    1.13
 -11   3  -2    2.38    1.17
 -11   3  -2    0.43    0.76
 -11   3  -2    1.13    0.94
 -12  -3  -2    0.52    1.20
 -12   3  -2   -0.60    0.88
  12   3   2    1.70    1.58
 -12   3  -2    0.36    1.05
 -12   3  -2   -1.31    0.71
 -13  -3  -2    1.30    1.23
  13   3   2   -6.84    1.90
 -13   3  -2    0.93    0.72
 -13   3  -2    0.24    1.03
 -13   3  -2    1.85    1.14
 -13  -4   2   -0.91    0.94
  13   4  -2   -1.07    1.36
 -13   4   2    1.32    1.28
 -13   4   2   -2.58    1.27
 -12  -4   2    1.86    1.11
 -12   4   2    1.76    1.25
  12   4  -2    3.01    1.52
  12   4  -2   -3.42    1.92
 -12   4   2    1.41    1.32
  11  -4  -2   -2.68    2.25
 -11  -4   2    0.68    1.06
  11   4  -2    1.56    1.23
 -11   4   2   -0.68    1.17
  11   4  -2   -1.54    1.88
 -11   4   2    0.52    1.22
 -10  -4   2   -0.57    0.91
 -10  -4   2    3.95    2.86
  10   4  -2    0.60    1.03
 -10   4   2    0.13    1.15
  -9  -4   2   -4.10    1.98
  -9  -4   2   -0.28    0.77
   9  -4  -2   -2.95    1.70
  -9   4   2   -0.62    1.06
   9   4  -2   -0.53    0.88
  -8  -4   2    3.75    2.13
   8  -4  -2    5.94    1.92
  -8  -4   2    3.80    1.37
   8   4  -2    7.42    1.44
  -8   4   2    4.64    1.44
  -7  -4   2    3.48    1.63
  -7  -4   2    6.08    2.28
   7   4  -2    1.98    0.89
  -7   4   2    1.06    1.04
  -7   4   2    2.04    0.84
   6  -4  -2   -1.60    1.06
  -6  -4   2    3.12    1.11
  -6   4   2    2.23    0.75
  -6   4   2   -0.10    0.90
   5  -4  -2    0.16    1.02
  -5   4   2   -0.46    0.84
  -5   4   2   -1.46    0.64
   5   4  -2   -0.04    0.70
   4  -4  -2   -1.20    0.87
   4   4  -2    0.76    0.73
  -4   4   2    0.45    0.59
   3  -4  -2   44.68    8.73
  -3  -4   2   34.73    8.74
  -3   4   2   37.04    8.70
   3   4  -2   41.66    8.70
  -3   4   2   37.11    8.69
  -3   4   2   43.94    8.73
   2  -4  -2   11.94    2.61
  -2  -4   2   10.54    2.75
  -2   4   2   11.63    2.64
  -2   4   2   10.67    2.57
   2   4  -2   10.80    2.57
  -2   4   2   11.79    2.53
   1  -4  -2    4.28    1.10
  -1   4   2    3.65    0.93
  -1   4   2    2.06    1.05
   1   4  -2    3.71    0.99
   1   4  -2    4.03    1.01
  -1   4   2    3.43    0.97
   0  -4  -2    3.83    1.21
   0   4   2    6.65    1.25
   0   4   2    6.83    1.28
   0   4  -2    4.97    1.31
   0   4  -2    4.66    1.24
   0   4   2    4.48    1.42
   0   4  -2    5.13    1.26
  -1  -4  -2    9.76    2.52
  -1   4  -2   10.45    2.58
  -1   4  -2   11.05    2.52
  -1   4  -2   11.28    2.54
   1   4   2   11.63    2.57
   1   4   2   13.76    2.53
  -2  -4  -2    4.92    1.47
  -2   4  -2    5.15    1.49
  -2   4  -2    7.93    1.48
  -2   4  -2    8.26    1.57
  -2   4  -2    6.37    1.44
  -2   4  -2    5.42    1.54
   2   4   2    6.45    1.53
  -3   4  -2   37.25    8.02
   3   4   2   39.85    8.03
  -3   4  -2   31.46    8.06
  -3   4  -2   35.00    8.01
  -3   4  -2   38.07    8.00
  -3   4  -2   36.18    8.02
  -4  -4  -2   20.86    3.86
  -4   4  -2   16.67    3.79
  -4   4  -2   16.14    3.82
  -4   4  -2   18.90    3.89
  -4   4  -2   15.04    3.87
   4   4   2   16.88    3.83
  -4   4  -2   15.41    3.84
  -5  -4  -2   -0.28    0.70
  -5  -4  -2   -0.05    0.85
  -5   4  -2   -0.96    0.73
  -5   4  -2    1.21    0.75
   5   4   2   -0.67    0.83
  -5   4  -2    0.33    0.73
  -5   4  -2   -0.91    0.75
  -5   4  -2   -0.35    0.64
  -6  -4  -2    1.60    1.04
  -6  -4  -2    3.54    1.16
  -6   4  -2    2.64    0.86
  -6   4  -2    4.28    1.07
  -6   4  -2    2.93    1.02
  -6   4  -2    3.53    1.04
  -7  -4  -2    2.63    1.00
  -7   4  -2    0.38    0.93
  -7   4  -2    0.22    0.79
   7   4   2    0.38    0.92
  -7   4  -2    0.67    0.83
  -7   4  -2   -0.72    1.11
  -8  -4  -2    0.02    1.05
  -8  -4  -2    1.49    1.07
  -8   4  -2    0.18    0.84
  -8   4  -2    1.19    0.84
  -8   4  -2   -0.68    0.53
   8   4   2   -0.23    1.04
  -9  -4  -2    0.57    1.16
  -9  -4  -2    3.33    1.21
   9   4   2    0.62    1.15
  -9   4  -2   -0.34    0.56
  -9   4  -2    0.21    0.90
  -9   4  -2   -0.15    0.97
 -10  -4  -2   -0.12    1.28
 -10  -4  -2    0.57    0.95
 -10   4  -2    2.22    1.09
 -10   4  -2    1.64    0.70
  10   4   2    6.49    1.40
 -10   4  -2    2.76    1.32
 -11  -4  -2   -0.66    1.37
 -11  -4  -2    0.63    0.91
  11   4   2    2.53    1.64
 -11   4  -2    1.16    1.12
 -11   4  -2    0.75    1.00
 -11   4  -2    0.78    0.90
 -12  -4  -2   -0.49    0.85
 -12  -4  -2   -0.42    1.45
 -12   4  -2    0.71    0.98
  12   4   2    1.42    1.56
 -12   4  -2    1.67    0.84
 -12   4  -2   -1.97    1.15
 -13  -5   2    1.11    1.30
  13   5  -2    2.66    1.42
 -13   5   2    2.77    1.35
 -12  -5   2    0.69    1.30
 -12   5   2    2.18    1.37
 -12   5   2    2.92    1.40
  12   5  -2    3.21    2.08
  12   5  -2    2.93    1.36
 -11  -5   2    0.05    1.23
 -11   5   2    0.91    1.22
  11   5  -2   -0.22    2.17
 -11   5   2   -1.11    1.14
  11   5  -2    0.35    1.28
 -10   5   2   -0.75    1.76
  10   5  -2    3.09    1.14
  10   5  -2   -1.02    1.43
 -10   5   2    0.80    1.27
  -9  -5   2    0.07    0.95
   9  -5  -2    1.20    2.40
   9   5  -2    0.22    1.28
  -9   5   2   -0.38    1.24
   9   5  -2    1.27    0.99
  -8  -5   2    8.56    1.80
   8  -5  -2    2.64    2.28
   8   5  -2    5.09    1.52
  -8   5   2    2.89    1.52
   8   5  -2    7.36    1.59
  -7  -5   2    0.31    1.22
   7   5  -2    0.08    0.92
  -7   5   2    0.57    1.00
   7   5  -2    1.06    0.91
  -7   5   2    1.22    0.79
   6  -5  -2   56.51   12.29
   6   5  -2   57.20   12.18
   6   5  -2   54.03   12.19
  -6   5   2   57.93   12.18
  -6   5   2   52.65   12.19
   5  -5  -2   11.75    2.84
  -5   5   2    9.10    2.57
   5   5  -2   12.29    2.60
   5   5  -2   11.95    2.63
  -5   5   2   11.65    2.72
   4  -5  -2   17.15    3.61
  -4  -5   2   16.53    3.55
   4   5  -2   13.63    3.47
   3  -5  -2    0.00    0.80
  -3  -5   2    0.29    0.97
   3   5  -2    1.11    0.68
  -3   5   2   -0.62    0.56
  -2  -5   2    2.56    1.99
   2  -5  -2    8.08    1.47
  -2   5   2    4.72    1.32
   2   5  -2    6.53    1.35
  -2   5   2    5.17    1.50
  -2   5   2    3.52    1.43
  -2   5   2    5.14    1.29
   1  -5  -2    1.46    0.90
   1   5  -2   -0.16    0.56
  -1   5   2    0.70    0.55
  -1   5   2    0.57    0.61
  -1   5   2    1.81    0.92
   0  -5  -2    0.40    0.50
   0   5  -2    0.88    0.68
   0   5  -2    1.91    0.53
   0   5  -2    0.55    0.71
   0   5   2    0.53    0.69
   0   5  -2    2.07    0.58
   0   5   2    1.53    0.58
   0   5   2   -0.04    0.91
  -1  -5  -2   -0.11    0.51
   1   5   2    0.61    0.64
  -1   5  -2    0.39    0.48
   1   5   2    0.78    0.48
  -1   5  -2   -0.10    0.62
   1   5   2   -1.04    0.95
  -1   5  -2   -0.70    0.68
  -1   5  -2   -0.21    0.52
  -2  -5  -2    4.05    1.20
   2   5   2    7.70    1.43
  -2   5  -2    5.86    1.31
  -2   5  -2    4.21    1.16
  -2   5  -2    3.63    1.23
   2   5   2    6.68    1.29
  -2   5  -2    3.86    1.28
  -2   5  -2    4.53    1.17
  -3  -5  -2   -0.19    0.66
   3   5   2   -0.07    0.72
  -3   5  -2   -0.29    0.81
  -3   5  -2    0.29    0.84
   3   5   2    0.40    0.98
  -3   5  -2    0.79    0.46
  -4  -5  -2    3.26    0.97
  -4   5  -2    0.75    0.60
   4   5   2   -0.57    1.09
   4   5   2    2.27    1.10
  -4   5  -2    1.09    0.76
  -4   5  -2    1.45    0.58
  -5   5  -2   17.06    3.85
   5   5   2   12.17    3.98
  -5   5  -2   18.35    3.89
  -5   5  -2   18.28    3.82
  -6  -5  -2    9.67    2.70
  -6   5  -2   14.29    2.70
   6   5   2    0.89    3.49
   6   5   2   11.18    2.64
  -6   5  -2    9.08    2.62
  -6   5  -2   12.63    2.59
  -6   5  -2   11.53    2.60
  -6   5  -2   12.07    2.63
  -7  -5  -2    0.59    0.96
   7   5   2    1.20    1.00
  -7   5  -2    1.70    0.87
  -7   5  -2    3.14    1.05
  -7   5  -2    1.86    0.90
  -7   5  -2    2.78    1.02
  -8  -5  -2    1.14    1.31
   8   5   2    1.58    1.06
  -8   5  -2    1.69    0.87
  -8   5  -2    1.87    1.04
  -8   5  -2    1.88    0.99
  -9  -5  -2    1.60    1.35
  -9   5  -2    0.64    0.96
  -9   5  -2    1.04    0.72
   9   5   2   -0.11    1.10
  -9   5  -2   -0.56    0.86
 -10  -5  -2   -0.33    0.93
 -10   5  -2    1.60    1.01
  10   5   2   -0.15    1.25
 -10   5  -2    0.01    0.76
 -10   5  -2    0.70    0.99
 -11  -5  -2   -0.45    0.91
 -11   5  -2   -0.63    1.03
 -11   5  -2    1.43    1.14
  11   5   2    3.46    1.42
 -12  -5  -2    1.49    0.92
  12   5   2    0.75    1.64
 -12   5  -2    1.47    1.16
 -12   5  -2   -0.93    1.24
 -12  -6   2    1.83    1.38
 -12   6   2   -0.07    1.28
  12   6  -2    0.68    1.21
  12   6  -2    0.77    2.52
 -12   6   2   -0.87    1.22
 -11  -6   2    1.92    1.48
  11   6  -2    5.91    1.49
  11   6  -2    3.29    1.83
 -11   6   2    1.48    1.29
 -11   6   2    1.67    1.37
 -10  -6   2    0.67    1.27
 -10   6   2    2.25    1.21
  10   6  -2    2.78    1.50
 -10   6   2    1.27    1.27
  -9  -6   2    0.12    0.97
   9   6  -2    1.02    1.28
  -9   6   2   -0.27    1.24
  -8  -6   2    1.72    1.51
  -8   6   2    0.54    1.09
   8   6  -2    3.59    1.17
   8   6  -2    1.98    1.16
  -8   6   2    2.08    1.04
  -7  -6   2   42.69   10.69
   7   6  -2   45.23   10.63
  -7   6   2   46.81   10.66
  -7   6   2   52.82   10.64
   7   6  -2   54.35   10.65
   6  -6  -2   12.46    3.19
  -6   6   2    9.85    2.40
  -6   6   2    9.05    2.43
   6   6  -2   10.10    2.38
   6   6  -2   11.02    2.45
   5  -6  -2    2.51    1.52
   5   6  -2    2.24    0.98
  -5   6   2    1.74    0.86
  -5   6   2    1.11    0.91
   5   6  -2    3.67    0.89
   4  -6  -2    1.54    1.31
  -4  -6   2   -0.73    1.06
  -4   6   2    1.29    0.76
   4   6  -2    1.20    0.78
  -4   6   2    0.54    0.65
  -3  -6   2   -0.35    1.06
   3  -6  -2    1.44    1.08
  -3   6   2    0.44    0.82
  -3   6   2    0.19    0.57
   3   6  -2    1.17    0.70
  -2  -6   2    1.27    1.31
   2  -6  -2   -0.15    1.05
   2   6  -2   -0.38    0.63
  -2   6   2    0.55    0.91
  -2   6   2    0.74    0.76
   1  -6  -2    1.45    0.59
   1   6  -2    1.31    0.82
   1   6  -2    2.62    0.69
  -1   6   2    3.28    1.05
  -1   6   2    2.67    0.68
   1   6  -2    0.49    0.74
   0  -6  -2    3.83    1.36
   0   6  -2    5.79    1.35
   0   6   2    5.72    1.54
   0   6   2    7.10    1.55
   0   6   2    6.34    1.34
  -1  -6  -2    4.35    1.05
  -1   6  -2    2.81    1.04
  -1   6  -2    3.85    1.08
  -1   6  -2    2.22    1.09
  -1   6  -2    3.21    0.98
   1   6   2    5.20    1.39
  -1   6  -2    6.14    1.20
   1   6   2    2.30    1.29
   1   6   2    5.38    1.01
  -2  -6  -2    0.20    0.54
  -2   6  -2   -0.01    0.50
  -2   6  -2    0.82    0.70
  -2   6  -2    0.58    0.59
   2   6   2    1.19    0.56
   2   6   2    2.26    1.13
   2   6   2    0.41    0.97
  -2   6  -2    1.27    0.81
  -2   6  -2    0.84    0.74
  -3  -6  -2   26.24    4.98
  -3   6  -2   22.84    4.99
   3   6   2   19.74    4.95
  -3   6  -2   19.86    4.91
   3   6   2   26.15    5.07
  -3   6  -2   22.02    4.96
  -4  -6  -2    4.27    1.36
  -4   6  -2    4.97    1.25
  -4   6  -2    2.76    1.05
  -4   6  -2    4.52    1.08
   4   6   2    0.85    1.38
  -4   6  -2    6.41    1.27
   4   6   2    3.52    1.22
  -5  -6  -2    1.48    1.13
  -5   6  -2    0.78    0.62
  -5   6  -2    0.78    0.59
   5   6   2    0.03    1.17
  -5   6  -2    0.33    0.84
   5   6   2    0.79    0.80
  -5   6  -2    1.05    0.77
  -5   6  -2    0.56    0.96
  -6  -6  -2    6.96    1.92
  -6   6  -2   10.75    1.89
  -6   6  -2    7.26    1.68
   6   6   2    1.67    1.98
   6   6   2    6.74    1.71
  -6   6  -2    5.45    1.65
  -6   6  -2    6.16    1.72
  -7  -6  -2    2.59    1.33
  -7   6  -2    3.28    1.14
  -7   6  -2    1.77    0.92
  -7   6  -2    1.82    0.83
  -7   6  -2    0.42    0.86
   7   6   2    1.09    0.97
  -8   6  -2    0.32    0.69
   8   6   2    0.74    1.08
  -8   6  -2    4.46    1.24
  -8   6  -2    2.66    0.97
  -9  -6  -2    0.39    1.43
   9   6   2   -0.30    1.13
  -9   6  -2    1.59    1.04
  -9   6  -2    1.09    2.01
 -10  -6  -2    3.51    1.45
 -10   6  -2    1.07    1.08
 -10   6  -2    1.55    1.15
  10   6   2    0.16    1.21
 -11  -6  -2    0.90    1.03
  11   6   2   -0.70    1.28
 -11   6  -2   -0.53    1.18
 -11   6  -2    1.60    1.07
  12   6   2   -1.26    1.45
 -11  -7   2    2.45    1.50
  11   7  -2    2.72    1.27
 -11   7   2    2.11    1.26
 -11   7   2    1.12    1.27
  11   7  -2    1.44    2.00
 -10  -7   2    7.10    2.90
 -10   7   2   15.48    2.87
 -10   7   2    9.56    2.88
  10   7  -2   12.68    3.07
  10   7  -2   13.51    2.92
  -9  -7   2   -0.89    1.78
   9   7  -2    2.71    1.32
  -9   7   2    0.88    0.98
   9   7  -2   -0.15    1.32
  -9   7   2    1.97    1.25
  -8  -7   2   -2.07    1.53
   8   7  -2   -2.10    1.12
  -8   7   2    0.42    1.04
  -8   7   2    0.08    0.98
  -7  -7   2    9.85    2.28
  -7   7   2    6.28    1.91
   7   7  -2    6.97    1.89
   7   7  -2    8.39    1.93
  -7   7   2    5.38    1.98
   6   7  -2   -0.19    0.83
   6   7  -2    0.50    0.89
  -6   7   2   -0.39    0.88
  -6   7   2   -1.06    0.93
   5  -7  -2    4.35    2.48
  -5   7   2    2.03    0.95
  -5   7   2    2.84    1.02
   5   7  -2    2.24    0.93
  -4  -7   2    0.57    1.33
   4  -7  -2    2.61    1.81
  -4   7   2    1.13    0.84
   4   7  -2    2.11    0.80
  -4   7   2    2.09    0.74
  -3  -7   2    1.76    1.53
   3  -7  -2    1.41    1.51
  -3   7   2    1.78    0.71
   3   7  -2    2.04    0.78
  -3   7   2    1.07    0.93
   2  -7  -2   -0.14    0.57
  -2  -7   2    1.40    1.75
   2   7  -2   -1.11    0.60
  -2   7   2    0.16    0.51
  -2   7   2   -0.60    0.77
   2   7  -2    0.48    0.70
   1   7  -2    1.37    0.77
  -1   7   2    1.01    1.00
  -1   7   2    1.78    1.10
   1   7  -2    2.01    0.65
   1   7  -2    1.74    0.92
   0  -7  -2   -0.66    0.51
   0   7   2   -0.19    0.52
   0   7   2    0.39    1.03
   0   7  -2    1.01    0.72
   0   7  -2    0.37    0.50
   0   7  -2    0.12    0.62
  -1  -7  -2    2.70    0.93
  -1   7  -2    2.58    1.02
  -1   7  -2    3.27    0.86
   1   7   2    3.08    1.06
   1   7   2    3.77    1.28
  -1   7  -2    5.05    1.15
   1   7   2    3.22    0.90
  -2  -7  -2    0.47    0.63
   2   7   2    0.70    1.12
  -2   7  -2    0.29    0.75
  -2   7  -2    0.40    0.59
  -2   7  -2   -0.28    0.68
   2   7   2    0.68    0.54
  -2   7  -2   -0.20    0.52
  -2   7  -2    1.27    0.76
   2   7   2    0.01    0.81
  -3  -7  -2    2.00    0.96
   3   7   2    1.21    0.58
  -3   7  -2    0.85    0.67
  -3   7  -2    2.35    0.94
   3   7   2    2.00    0.81
  -3   7  -2   -0.13    0.93
  -3   7  -2    0.76    0.55
  -3   7  -2    0.69    0.64
   3   7   2    0.18    1.19
  -4  -7  -2    1.22    1.32
  -4   7  -2   -0.11    0.57
   4   7   2   -0.76    0.79
  -4   7  -2    0.08    0.65
  -4   7  -2    0.39    0.79
  -4   7  -2    1.25    1.00
  -4   7  -2   -0.15    0.95
   4   7   2   -1.53    1.10
  -5  -7  -2    0.21    1.22
  -5   7  -2    0.82    0.72
  -5   7  -2    1.86    0.81
   5   7   2    0.03    0.80
   5   7   2    1.47    1.24
  -5   7  -2   -0.40    0.60
  -5   7  -2   -0.35    1.01
  -6  -7  -2   -0.20    1.32
  -6   7  -2   -0.01    0.98
   6   7   2   -0.05    0.86
  -6   7  -2   -0.03    0.91
   6   7   2    0.34    1.43
  -6   7  -2    0.34    0.72
  -6   7  -2    0.87    0.85
  -7  -7  -2    2.92    1.69
  -7   7  -2    4.46    1.29
  -7   7  -2    2.06    1.18
  -7   7  -2    3.27    1.26
   7   7   2    3.44    1.18
  -8   7  -2    1.05    1.16
  -8   7  -2    2.73    1.31
   8   7   2   -0.47    0.96
   9   7   2    0.98    1.06
  -9   7  -2    1.01    1.10
  -9   7  -2    2.80    1.14
 -10  -7  -2    2.86    1.88
  10   7   2    1.87    1.10
 -10   7  -2    0.92    1.03
 -10   7  -2    0.14    1.16
 -11  -7  -2   -1.09    1.04
  11   7   2    0.90    1.13
 -11   7  -2    0.38    0.94
 -11   7  -2   -0.51    1.20
 -11  -8   2    3.09    1.66
  11   8  -2    2.13    1.27
 -11   8   2    1.34    1.25
 -11   8   2    1.60    1.19
 -10  -8   2   -0.04    1.49
  10   8  -2    3.54    1.34
 -10   8   2    3.94    1.25
 -10   8   2    4.81    1.45
  10   8  -2    1.33    1.92
  -9  -8   2   37.42    6.38
   9   8  -2   28.49    5.95
  -9   8   2   21.35    5.96
  -9   8   2   25.58    5.96
  -8   8   2    1.57    1.27
  -8   8   2    4.15    1.36
   8   8  -2    3.44    2.02
   8   8  -2    5.13    1.43
  -8   8   2    3.85    1.21
  -7  -8   2    1.81    1.90
  -7   8   2    2.49    1.44
  -7   8   2    3.91    1.32
   7   8  -2    4.82    1.40
   6   8  -2    0.82    1.00
  -6   8   2    0.50    0.99
  -6   8   2    0.89    1.11
  -5   8   2    1.78    1.05
   5   8  -2    0.46    0.86
  -5   8   2    0.09    0.77
  -4  -8   2    8.81    2.17
  -4   8   2    3.48    1.29
  -4   8   2    4.75    1.42
   4   8  -2    4.15    1.37
  -4   8   2    7.71    1.46
  -3  -8   2    3.51    1.92
   3   8  -2    1.13    0.63
  -3   8   2    0.09    0.94
  -3   8   2    1.65    0.69
   3   8  -2    0.12    0.78
   2  -8  -2    1.05    0.82
  -2   8   2    0.90    1.00
   2   8  -2    2.25    0.81
   2   8  -2    1.58    0.64
  -2   8   2    1.32    0.68
   1  -8  -2    1.22    0.83
   1   8  -2    2.40    0.75
   1   8  -2    1.97    0.67
  -1   8   2    1.67    0.97
   1   8  -2    1.09    1.04
  -1   8   2    2.34    0.70
   0  -8  -2   -0.19    0.64
   0   8  -2    0.65    0.50
   0   8   2    0.47    0.52
   0   8  -2    0.23    0.62
   0   8   2    1.66    1.13
  -1  -8  -2    2.01    0.79
  -1   8  -2    1.42    0.57
  -1   8  -2    0.76    0.84
   1   8   2    1.33    0.58
  -1   8  -2    1.25    0.76
   1   8   2    2.11    1.16
  -2  -8  -2   -0.73    0.75
   2   8   2   -0.11    0.75
  -2   8  -2    1.18    0.74
  -2   8  -2    0.70    0.89
   2   8   2    0.16    0.47
  -2   8  -2    0.25    0.49
   2   8   2    1.63    1.12
  -2   8  -2    0.24    0.79
  -3  -8  -2   -1.06    1.22
  -3   8  -2    0.14    0.86
   3   8   2    0.90    0.81
  -3   8  -2    0.50    0.66
  -3   8  -2   -1.94    0.80
  -3   8  -2    0.33    0.46
   3   8   2    0.57    0.48
   3   8   2   -0.49    1.11
  -4  -8  -2    1.94    1.27
  -4   8  -2    1.61    0.71
  -4   8  -2    2.30    1.06
   4   8   2    2.17    0.69
  -4   8  -2    1.40    0.96
  -4   8  -2    2.96    1.05
   4   8   2    1.09    1.24
   4   8   2    1.50    0.93
  -5  -8  -2   -0.18    1.29
   5   8   2   -1.18    0.86
   5   8   2   -1.35    1.20
  -5   8  -2   -0.50    0.90
   5   8   2   -0.19    0.56
  -5   8  -2    0.20    1.04
  -5   8  -2    0.81    1.05
  -5   8  -2   -1.00    0.62
  -6  -8  -2    5.05    1.95
   6   8   2    4.26    1.79
   6   8   2    5.92    1.59
  -6   8  -2    7.19    1.57
  -6   8  -2    4.36    1.47
  -6   8  -2    5.11    1.72
  -7  -8  -2   -0.37    2.62
  -7   8  -2   -0.52    1.10
   7   8   2    4.04    2.35
   7   8   2   -0.21    0.91
  -8   8  -2    1.62    0.98
   8   8   2    1.76    0.95
  -8   8  -2    0.17    1.03
  -8   8  -2    0.71    1.02
  -9  -8  -2    9.86    2.88
   9   8   2    9.95    2.31
  -9   8  -2    8.86    2.35
  -9   8  -2    9.87    2.28
  -9   8  -2    7.58    2.28
 -10  -8  -2   -1.79    1.89
  10   8   2    0.66    0.99
 -10   8  -2    2.47    1.18
 -10   8  -2    0.56    1.25
 -10  -9   2    4.00    1.94
 -10   9   2    0.68    1.33
  10   9  -2    3.46    2.21
 -10   9   2    3.23    1.20
  -9  -9   2    0.51    2.04
  -9   9   2    1.22    1.25
   9   9  -2    0.70    1.44
  -9   9   2    1.49    1.04
  -8  -9   2   10.81    2.95
  -8   9   2   10.19    2.01
  -8   9   2    4.72    1.94
  -8   9   2    7.20    2.00
   8   9  -2    7.05    2.11
  -7   9   2    1.40    0.97
  -7   9   2    1.01    1.02
  -7   9   2    0.53    1.20
   7   9  -2    0.83    1.19
  -6   9   2   -0.07    1.20
  -6   9   2    0.68    1.00
  -6   9   2    0.60    1.09
   6   9  -2    0.88    1.13
   5   9  -2    3.41    1.13
   5   9  -2    4.12    1.26
  -5   9   2    3.50    1.24
  -5   9   2    4.56    1.42
  -4  -9   2   -5.79    3.02
  -4   9   2   -0.17    0.76
   4   9  -2   -0.27    0.69
  -4   9   2   -0.35    0.94
  -4   9   2   -0.04    0.88
   3   9  -2    0.54    0.70
  -3   9   2   -0.51    0.90
   3   9  -2   -0.81    0.65
  -3   9   2   -0.33    0.68
   2  -9  -2    0.43    1.09
   2   9  -2    1.91    0.66
   2   9  -2    1.13    0.78
  -2   9   2    3.20    1.12
  -2   9   2    0.71    0.65
   1  -9  -2    0.13    0.89
   1   9  -2   -0.38    1.08
  -1   9   2    0.94    1.01
   1   9  -2    0.50    0.72
   1   9  -2   -0.29    0.50
  -1   9   2   -0.03    0.52
   0  -9  -2    0.46    0.91
   0   9   2    0.14    0.51
   0   9  -2    0.58    0.91
   0   9   2    1.16    0.93
   0   9  -2   -0.58    0.67
   0   9  -2    0.32    0.51
  -1   9  -2    0.16    0.81
   1   9   2   -0.30    1.24
  -1   9  -2    1.55    0.75
  -1   9  -2    0.08    0.50
   1   9   2    0.49    0.49
  -2  -9  -2    5.11    1.43
  -2   9  -2    6.01    1.27
   2   9   2    5.71    1.50
  -2   9  -2    3.24    1.02
  -2   9  -2    3.84    1.17
   2   9   2    2.59    1.00
  -3  -9  -2    1.79    1.27
  -3   9  -2    0.66    1.19
  -3   9  -2   -1.73    0.94
  -3   9  -2    1.72    1.08
   3   9   2    0.07    1.14
   3   9   2    0.26    0.52
  -4  -9  -2    1.26    1.45
  -4   9  -2    2.34    1.13
   4   9   2    0.92    0.98
  -4   9  -2    1.04    0.75
   4   9   2   -0.05    1.21
  -4   9  -2    4.85    1.11
   4   9   2    1.50    0.71
  -4   9  -2    2.13    1.19
  -5  -9  -2    1.38    1.51
   5   9   2    0.15    0.53
   5   9   2    0.41    0.92
  -5   9  -2   -1.38    1.11
  -5   9  -2   -0.38    0.94
  -5   9  -2    0.00    0.93
   5   9   2    0.47    1.21
  -5   9  -2    0.22    0.72
  -6  -9  -2    1.07    1.91
   6   9   2    2.01    1.16
  -6   9  -2    1.38    1.12
   6   9   2    0.20    0.72
  -6   9  -2    1.12    1.07
  -6   9  -2    0.66    0.80
   6   9   2    1.70    1.47
  -7  -9  -2    1.46    2.31
   7   9   2    1.67    0.74
  -7   9  -2    0.97    1.07
   7   9   2    0.42    0.96
  -7   9  -2    3.86    1.24
  -7   9  -2    1.27    0.91
  -8   9  -2    0.37    1.07
  -8   9  -2    0.75    0.91
   8   9   2    1.18    0.76
   8   9   2   -0.07    0.92
  -8   9  -2    1.03    1.06
  -9  -9  -2   -0.47    2.10
   9   9   2    1.59    1.01
   9   9   2    2.08    0.98
  -9   9  -2    1.46    1.01
  -9   9  -2    1.65    1.01
  -9   9  -2    1.36    1.23
  -8 -10   2   -3.33    2.78
  -8  10   2    1.49    1.04
   8  10  -2    0.65    0.74
  -8  10   2    0.29    1.31
   8  10  -2    3.24    1.45
  -8  10   2    1.26    1.11
  -7 -10   2    2.90    2.99
  -7  10   2    3.59    1.36
  -7  10   2    2.97    1.36
  -7  10   2    7.34    1.51
   7  10  -2    4.13    1.47
   7  10  -2    2.52    1.13
   6  10  -2    2.09    1.06
  -6  10   2    3.46    1.27
   6  10  -2    3.26    1.31
  -6  10   2    6.21    1.41
  -6  10   2    3.56    1.43
  -5  10   2    2.93    1.26
  -5  10   2    0.78    0.89
  -5  10   2    1.88    1.19
   5  10  -2    1.15    0.68
   5  10  -2    0.22    0.94
   4  10  -2    0.08    0.87
   4  10  -2   -0.27    0.61
  -4  10   2    0.92    1.04
  -4  10   2    0.11    0.74
  -4  10   2    0.13    1.06
  -4  10   2    0.77    1.32
  -3  10   2    1.04    1.04
   3  10  -2   -0.08    0.82
   3  10  -2    1.06    0.99
  -3  10   2   -2.89    1.49
  -2  10   2    2.37    1.14
   2  10  -2   -0.07    0.79
   2  10  -2    1.09    0.68
  -2  10   2    0.49    0.62
   1  10  -2    1.78    0.71
  -1  10   2    2.00    1.22
   1  10  -2    1.32    0.87
  -1  10   2    1.97    0.69
   0 -10  -2    0.79    1.19
   0  10   2   -0.47    1.03
   0  10  -2    0.93    0.98
   0  10   2    0.14    0.53
   0  10  -2    0.66    0.79
   0  10  -2    0.91    0.57
  -1 -10  -2    2.84    1.34
  -1  10  -2    2.23    0.89
  -1  10  -2    3.07    1.08
  -1  10  -2    6.37    1.33
   1  10   2    2.46    0.83
   1  10   2    2.21    1.19
  -2 -10  -2    2.81    1.41
  -2  10  -2    1.11    1.10
   2  10   2   -2.71    1.25
  -2  10  -2    1.44    0.74
   2  10   2   -0.02    0.48
  -2  10  -2    0.39    1.03
  -3 -10  -2   -1.16    1.44
  -3  10  -2   -0.06    1.01
   3  10   2   -0.06    0.74
  -3  10  -2   -0.51    0.98
   3  10   2    2.13    1.21
  -3  10  -2   -0.02    0.62
  -4 -10  -2    5.02    2.16
  -4  10  -2    0.58    0.60
  -4  10  -2    2.49    1.18
  -4  10  -2    0.54    0.89
   4  10   2    0.46    0.55
   4  10   2    2.82    1.29
  -4  10  -2    0.23    1.10
  -5 -10  -2    1.95    1.82
  -5  10  -2   -0.63    0.96
   5  10   2    0.31    0.53
   5  10   2    2.98    1.89
  -5  10  -2    0.81    0.69
  -5  10  -2   -1.04    1.03
  -5  10  -2   -1.15    1.09
  -6 -10  -2   -2.92    1.64
  -6  10  -2    2.21    1.08
   6  10   2   -0.13    0.52
  -6  10  -2   -0.53    0.99
  -6  10  -2   -0.06    0.72
   6  10   2   -3.05    1.33
  -6  10  -2   -0.45    1.08
   7  10   2   -1.18    0.56
  -7  10  -2    0.70    1.05
  -7  10  -2   -0.97    0.93
  -7  10  -2    0.86    0.86
  -8  10  -2   -0.05    0.87
  -8  10  -2    1.06    1.02
  -8  10  -2   -0.97    1.08
   8  10   2   -0.23    0.65
   8  10   2   -0.41    0.94
  -7 -11   2    5.01    5.95
  -7  11   2    0.54    1.18
  -7  11   2    0.92    0.91
   7  11  -2   -0.95    0.61
   7  11  -2   -0.65    1.22
  -7  11   2    0.91    1.58
  -6  11   2   -1.89    1.05
   6  11  -2   -0.28    0.60
  -6  11   2    0.41    0.91
  -6  11   2    2.77    1.67
   6  11  -2    0.71    1.13
  -5  11   2    0.75    0.79
   5  11  -2    0.81    1.00
   5  11  -2    0.05    0.63
  -5  11   2   -0.98    1.05
  -5  11   2   -0.59    1.90
  -4  11   2    3.15    1.22
   4  11  -2    1.11    0.77
   4  11  -2    2.44    0.99
  -4  11   2    1.86    0.87
   3  11  -2    0.86    0.85
  -3  11   2    1.33    0.69
  -3  11   2    1.44    1.03
   3  11  -2    0.71    0.70
  -3  11   2    1.87    1.11
  -2  11   2   -0.50    1.09
  -2  11   2    0.11    0.65
  -2  11   2    1.58    0.85
   2  11  -2    0.54    0.64
   2  11  -2    0.11    0.90
   1  11  -2    0.63    0.86
   1  11  -2    0.35    0.62
  -1  11   2    0.21    0.55
  -1  11   2   -1.46    1.04
  -1  11   2    0.74    0.87
   0  11  -2    4.16    1.61
   0  11  -2    0.46    0.82
   0  11   2   -0.12    0.50
   0  11  -2    0.23    0.61
   0  11   2   -0.12    1.17
  -1 -11  -2    0.98    1.91
  -1  11  -2    2.28    0.90
  -1  11  -2    1.48    0.62
  -1  11  -2    2.21    1.81
   1  11   2    0.30    0.58
   1  11   2   -0.37    1.19
  -2 -11  -2    0.19    3.42
   2  11   2    5.69    1.55
   2  11   2    3.40    1.13
  -2  11  -2    7.13    1.39
  -2  11  -2    4.31    1.20
  -3 -11  -2   -0.61    2.68
  -3  11  -2    0.39    0.77
   3  11   2    0.69    0.53
   3  11   2   -0.09    1.04
  -3  11  -2   -0.20    1.07
  -3  11  -2    1.10    0.66
  -4 -11  -2    1.37    1.95
  -4  11  -2   -0.93    0.96
  -4  11  -2    0.86    0.92
   4  11   2    0.86    1.12
  -4  11  -2    0.66    0.64
   4  11   2    0.43    0.51
  -5 -11  -2    0.58    1.87
  -5  11  -2    0.50    0.97
   5  11   2    1.24    0.55
  -5  11  -2   -0.08    0.73
  -5  11  -2    0.65    0.92
   5  11   2   -0.77    1.37
  -6 -11  -2    6.96    2.24
  -6  11  -2    2.20    1.09
  -6  11  -2    5.30    1.33
   6  11   2    2.52    0.95
  -6  11  -2    5.26    1.23
   6  11   2    1.40    2.03
  -6  11  -2    3.73    1.88
   4  12  -2    0.27    0.56
  -4  12   2   -0.17    0.70
   4  12  -2    0.04    0.95
  -4  12   2   -0.11    0.96
  -3  12   2    0.72    0.60
  -3  12   2    0.31    1.03
   3  12  -2    0.25    0.62
   3  12  -2   -0.06    0.95
   2  12  -2    0.76    0.90
  -2  12   2    0.34    1.06
  -2  12   2    0.35    1.02
   2  12  -2    0.13    0.62
  -2  12   2    0.28    0.52
  -1  12   2    2.22    0.85
  -1  12   2    4.36    1.26
   1  12  -2    3.03    1.07
   1  12  -2    1.73    0.88
  -1  12   2    2.79    1.25
   0  12   2    3.56    1.07
   0  12  -2    1.74    0.78
   0  12   2    1.98    1.17
   0  12  -2    3.82    1.03
   0  12   2    1.25    0.71
   1  12   2    4.77    1.26
  -1  12  -2    1.91    0.83
  -1  12  -2    0.64    1.71
   1  12   2    2.86    1.16
   1  12   2    1.46    0.71
  -1  12  -2    4.11    1.08
  -2 -12  -2    5.05    3.08
  -2  12  -2    0.87    1.28
  -2  12  -2    0.29    0.76
  -2  12  -2    0.20    0.64
   2  12   2   -2.40    1.21
   2  12   2    0.42    0.51
  -3 -12  -2    2.28    2.84
   3  12   2   -0.51    1.30
  -3  12  -2    0.75    0.85
   3  12   2   -0.13    0.49
  -3  12  -2   -1.01    1.09
  -3  12  -2   -0.10    0.61
  -4 -12  -2    2.25    2.85
  -4  12  -2    4.58    1.23
  -4  12  -2    2.01    0.90
   4  12   2    2.43    1.44
   4  12   2    2.00    0.80
  -4  12  -2    3.53    1.07
 -14   0   3   -0.18    1.27
  14   0  -3   -2.25    1.88
 -13   0   3    1.17    1.17
  13   0  -3   -0.75    1.51
 -12   0   3   -0.13    1.06
 -12   0   3   -0.20    1.14
  12   0  -3    1.73    1.27
  11   0  -3   -1.42    1.04
 -11   0   3   -0.48    1.22
 -11   0   3   -0.08    0.98
  10   0  -3   -0.29    0.95
 -10   0   3    0.09    0.74
   9   0  -3   -1.11    0.96
  -9   0   3   -0.22    0.66
  -9   0   3    0.51    1.20
  -8   0   3    0.26    0.57
  -8   0   3    1.26    1.18
  -7   0   3    0.58    0.68
   7   0  -3   -0.42    0.89
  -7   0   3    1.95    1.09
  -6   0   3   -0.04    0.61
  -6   0   3    1.09    1.00
   6   0  -3    1.50    0.88
  -5   0   3   -0.04    0.63
   5   0  -3    0.24    0.73
   4   0  -3    0.14    0.70
  -4   0   3   -0.69    0.67
  -3   0   3    0.09    0.75
   3   0  -3    0.19    0.67
  -2   0   3    0.91    0.80
   1   0  -3   -0.32    0.44
  -1   0   3   -1.10    0.80
   0   0  -3    0.09    0.21
   0   0   3    0.10    0.25
   1   0   3    0.25    0.62
  -1   0  -3    0.24    0.64
  -2   0  -3    1.08    0.70
  -2   0  -3    0.39    0.61
   3   0   3   -0.85    0.83
  -3   0  -3   -0.10    0.62
  -3   0  -3   -0.80    0.73
  -4   0  -3    0.27    0.78
  -4   0  -3    0.19    0.74
   4   0   3    0.50    0.87
   5   0   3    2.59    0.98
  -5   0  -3    0.08    0.81
  -6   0  -3    2.15    0.92
   6   0   3   -0.47    1.05
  -6   0  -3   -0.02    0.84
  -7   0  -3   -0.05    0.88
  -7   0  -3    1.60    0.98
   7   0   3   -0.02    1.17
   8   0   3   -1.40    1.24
  -8   0  -3   -0.06    0.90
  -8   0  -3    1.63    1.05
   9   0   3    0.42    1.41
  -9   0  -3   -0.10    1.01
  -9   0  -3    1.03    1.08
 -10   0  -3    0.47    1.13
 -10   0  -3    0.19    1.30
  11   0   3   -1.66    2.29
 -11   0  -3   -0.96    1.20
 -11   0  -3    0.80    0.95
 -12   0  -3   -0.21    0.94
 -13   0  -3    1.60    0.98
 -13   0  -3    1.19    0.77
 -14  -1   3   -0.24    1.23
  14  -1  -3    1.71    2.35
  14   1  -3   -3.05    1.80
 -14   1   3   -1.37    1.31
 -13  -1   3    1.47    1.25
  13  -1  -3   -2.01    1.66
 -13   1   3   -0.93    1.22
 -13   1   3    2.44    1.28
  13   1  -3    2.96    1.47
 -12  -1   3    0.27    1.04
 -12  -1   3    0.19    1.08
  12  -1  -3   -0.93    1.46
 -12   1   3   -2.41    1.59
 -12   1   3   -1.05    1.15
  12   1  -3    1.23    1.19
 -11  -1   3    0.55    1.04
 -11  -1   3    3.27    1.66
 -11  -1   3   -0.07    1.02
  11  -1  -3   -0.60    1.09
 -11   1   3    0.49    1.19
  11   1  -3   -0.69    1.02
 -10  -1   3   -2.35    1.42
 -10  -1   3   -0.11    0.65
  10  -1  -3    0.58    1.05
 -10   1   3    1.48    1.06
  10   1  -3    1.76    1.00
 -10   1   3    0.19    0.28
  -9  -1   3    1.44    1.23
   9  -1  -3   -0.37    1.54
  -9  -1   3    0.35    0.68
  -9   1   3    1.15    1.08
  -9   1   3   -0.14    0.80
   9   1  -3    0.31    0.89
  -8  -1   3    4.04    1.43
   8  -1  -3    2.82    1.16
  -8  -1   3    2.45    0.97
  -8   1   3    3.36    1.24
  -8   1   3    3.98    0.98
  -7  -1   3   -0.11    1.22
   7  -1  -3   -0.11    0.85
  -7  -1   3   -2.65    1.51
   7   1  -3    0.20    0.82
  -7   1   3   -0.76    0.92
   6  -1  -3    7.19    1.71
  -6  -1   3    7.37    1.65
   6   1  -3    9.36    1.74
  -6   1   3    6.03    1.61
  -6   1   3    4.76    1.66
   5  -1  -3   34.64    8.40
  -5  -1   3   38.16    8.38
   5   1  -3   38.89    8.39
  -5   1   3   40.67    8.39
  -4  -1   3   11.86    2.64
   4  -1  -3   10.75    2.66
   4   1  -3    9.61    2.62
  -4   1   3   14.49    2.66
  -3  -1   3    4.03    0.94
   3   1  -3    2.71    0.85
  -3   1   3    3.51    1.10
   3   1  -3    1.60    0.69
  -2  -1   3   14.32    2.79
   2  -1  -3   12.71    2.75
   2   1  -3    9.81    2.75
   1  -1  -3    8.27    1.81
  -1  -1   3    6.96    1.91
   0  -1  -3   17.22    3.83
   0   1   3   17.93    3.88
  -1  -1  -3    1.38    0.47
   1   1   3    2.56    0.65
  -2  -1  -3    1.43    0.55
  -2  -1  -3    0.43    0.34
  -2   1  -3    0.52    0.42
  -2   1  -3    2.04    0.73
  -2   1  -3    0.78    0.64
   2   1   3    0.84    0.70
  -3  -1  -3    9.13    1.97
  -3  -1  -3    8.79    1.95
  -3  -1  -3    9.06    1.86
   3   1   3    6.72    1.94
  -3   1  -3    7.03    1.82
  -4  -1  -3    1.72    0.87
  -4  -1  -3   -0.03    0.63
  -4   1  -3    0.00    0.83
  -4   1  -3   -0.24    0.67
   4   1   3   -0.30    0.83
  -5  -1  -3   14.50    3.23
  -5  -1  -3   16.03    3.20
   5   1   3   10.27    3.22
  -5   1  -3   14.99    3.26
  -6  -1  -3   11.63    2.34
  -6  -1  -3   10.25    2.38
  -6   1  -3    8.53    2.32
  -6   1  -3   10.74    2.30
   6   1   3    5.21    2.55
  -7  -1  -3    0.24    0.95
   7  -1   3    1.59    1.50
  -7  -1  -3    1.86    1.02
  -7   1  -3    0.42    1.01
  -7   1  -3    0.38    0.83
   7   1   3   -0.29    1.05
  -8  -1  -3    1.43    0.90
  -8  -1  -3   -0.07    1.10
   8  -1   3    1.54    1.66
   8   1   3   -0.03    1.19
  -8   1  -3    0.15    1.01
  -8   1  -3    0.36    0.86
  -9  -1  -3    2.42    1.41
  -9  -1  -3    3.21    1.25
  -9   1  -3    4.68    1.20
   9   1   3    1.71    1.55
  -9   1  -3    3.43    1.34
 -10  -1  -3    0.36    1.01
 -10   1  -3    0.87    0.98
 -10   1  -3    2.03    1.10
  10   1   3    0.49    1.57
 -11  -1  -3    1.44    1.36
 -11   1  -3   -0.66    0.78
 -11   1  -3    1.34    1.05
 -11   1  -3   -1.16    0.93
  11   1   3   -1.19    1.61
 -12  -1  -3    0.56    0.88
 -12   1  -3   -0.28    0.69
 -12   1  -3   -0.05    0.91
 -12   1  -3    1.37    1.09
 -13  -1  -3    1.12    0.92
 -13   1  -3    0.17    0.75
 -13   1  -3    2.00    0.98
  13   1   3    7.51    2.92
 -13  -2   3    1.41    1.37
 -13  -2   3    0.64    1.05
  13  -2  -3    1.76    1.70
 -13   2   3    0.34    1.22
  13   2  -3    0.79    1.39
 -13   2   3   -2.13    1.35
 -12  -2   3    0.57    0.91
 -12  -2   3    0.24    1.97
  12  -2  -3   -0.31    1.85
 -12   2   3    1.33    1.23
 -12   2   3   -1.31    1.14
 -11  -2   3    1.87    1.05
  11  -2  -3    2.15    1.46
 -11  -2   3    0.33    0.97
  11   2  -3    1.84    1.28
 -11   2   3    1.97    1.40
 -10  -2   3   -0.08    0.79
  10  -2  -3    2.74    1.29
 -10  -2   3    1.05    0.94
  10   2  -3    1.16    0.99
 -10   2   3    0.41    0.43
 -10   2   3    0.25    1.07
   9  -2  -3    2.07    1.32
  -9  -2   3    1.75    0.75
   9   2  -3    2.25    0.91
  -9   2   3    0.34    1.02
  -9   2   3    0.39    0.39
   8  -2  -3    3.23    1.27
  -8  -2   3    3.45    1.11
   8   2  -3    4.30    1.20
  -8   2   3    3.46    1.61
   7  -2  -3    6.43    1.50
  -7  -2   3    2.41    1.78
   7   2  -3    4.71    1.36
  -6  -2   3    0.81    0.71
   6  -2  -3    1.63    0.97
  -6   2   3   -0.25    0.84
   6   2  -3    1.60    0.79
  -6   2   3    0.31    0.30
   5  -2  -3    2.13    1.00
  -5  -2   3    1.63    0.79
   5   2  -3    1.92    0.87
  -4  -2   3    2.52    1.60
   4  -2  -3    3.56    1.03
   4   2  -3    3.30    1.00
  -4   2   3    2.80    0.85
   3  -2  -3    0.24    0.65
  -3  -2   3    1.52    0.86
  -3   2   3    1.45    0.52
   3   2  -3    1.11    0.46
   3   2  -3    0.28    0.61
  -3   2   3   -0.06    0.51
   2  -2  -3    3.64    1.04
  -2  -2   3    4.97    2.28
   2   2  -3    2.80    0.93
  -2   2   3    3.08    1.11
   2   2  -3    3.54    0.89
   1  -2  -3   28.33    5.58
   1   2  -3   23.56    5.55
  -1   2   3   24.07    5.58
   0   2   3    0.46    0.58
   0   2  -3    1.60    0.50
  -1  -2  -3   76.39   16.86
   1   2   3   77.11   16.87
  -1   2  -3   78.26   16.86
  -2  -2  -3    1.53    0.56
  -2  -2  -3    2.34    0.59
  -2   2  -3    2.47    0.84
  -2   2  -3    1.54    1.17
  -2   2  -3    1.68    0.55
   2   2   3    2.19    0.79
  -3  -2  -3   26.58    6.01
  -3  -2  -3   27.68    6.00
  -3   2  -3   26.29    5.99
  -3   2  -3   30.85    6.03
   3   2   3   23.00    6.03
  -3   2  -3   29.90    6.04
  -4  -2  -3    2.25    0.78
  -4  -2  -3    2.06    0.79
   4   2   3    3.97    1.45
  -4   2  -3    2.33    0.96
  -4   2  -3    1.97    0.83
  -4   2  -3    1.41    0.65
  -5  -2  -3    8.09    1.98
  -5   2  -3    7.90    1.99
   5   2   3    8.84    2.05
  -6  -2  -3    6.71    1.94
  -6   2  -3   11.06    2.00
   6   2   3    6.75    2.03
  -6   2  -3    8.11    1.92
  -7  -2  -3    8.71    2.72
  -7  -2  -3   12.06    2.75
  -7   2  -3   15.50    2.78
  -7   2  -3   12.29    2.79
  -7   2  -3   12.40    2.72
   7   2   3   10.83    2.86
  -8  -2  -3    4.81    1.36
  -8  -2  -3    4.38    1.23
  -8   2  -3    4.44    1.21
   8   2   3    1.83    1.50
  -8   2  -3    5.23    1.43
  -8   2  -3    5.62    1.34
  -9  -2  -3    3.34    1.02
   9   2   3    1.45    1.37
  -9   2  -3    2.21    1.14
  -9   2  -3    1.87    1.01
  -9   2  -3    0.94    0.79
 -10  -2  -3    1.54    1.20
  10   2   3    4.20    1.61
 -10   2  -3    1.03    1.09
 -10   2  -3    1.76    1.02
 -10   2  -3    0.47    0.89
 -11  -2  -3    0.39    1.04
  11   2   3    1.03    1.86
 -11   2  -3   -0.14    0.77
 -11   2  -3    0.62    0.99
 -11   2  -3    0.49    1.02
 -12  -2  -3    1.58    1.10
 -12   2  -3    2.52    0.88
 -12   2  -3    2.04    1.10
  12   2   3    1.23    1.93
 -12   2  -3    3.02    1.14
 -13  -2  -3    0.11    0.91
 -13   2  -3    1.17    1.09
  13   2   3    4.25    2.67
 -13   2  -3    1.11    0.87
 -13   2  -3    0.20    0.66
 -13  -3   3    0.65    1.07
 -13  -3   3    2.63    2.52
  13  -3  -3   -5.14    1.96
 -13   3   3   -0.09    1.26
  13   3  -3   -0.05    1.39
 -13   3   3   -0.25    1.27
  12  -3  -3    0.27    1.71
 -12  -3   3    0.09    0.87
  12   3  -3   -0.11    1.15
 -12   3   3    0.83    1.25
 -12   3   3    1.07    1.25
 -11  -3   3   -0.02    1.45
 -11  -3   3   -0.88    0.86
  11  -3  -3    1.38    1.52
 -11   3   3   -0.54    1.13
  11   3  -3    0.42    1.19
 -10  -3   3    1.36    1.22
  10  -3  -3   -1.40    1.38
 -10  -3   3    0.00    0.85
  10   3  -3    0.44    1.00
 -10   3   3   -0.28    1.06
  -9  -3   3   -0.73    1.13
  -9  -3   3    1.01    0.83
   9   3  -3    1.44    0.92
  -9   3   3   -0.38    1.08
  -8  -3   3    5.15    1.62
   8  -3  -3    8.68    1.86
  -8   3   3    4.76    1.66
   8   3  -3    7.30    1.66
  -8   3   3    6.91    1.60
  -7  -3   3    2.06    1.30
   7  -3  -3    1.75    1.06
   7   3  -3    2.47    0.87
  -7   3   3    1.30    0.82
  -7   3   3    1.97    1.16
   6  -3  -3   23.43    5.18
  -6  -3   3   20.69    5.14
  -6   3   3   23.34    5.14
   6   3  -3   25.12    5.15
  -5  -3   3    0.48    1.19
   5  -3  -3    2.42    0.91
  -5   3   3    1.53    0.71
  -5   3   3    1.11    0.86
   5   3  -3    1.48    0.85
  -4  -3   3   13.03    2.86
  -4   3   3   10.22    2.73
   4   3  -3   12.35    2.69
   3  -3  -3    0.71    0.70
   3   3  -3    0.15    0.59
  -3   3   3   -0.35    0.81
  -3   3   3    0.37    0.55
   3   3  -3    1.03    0.54
  -2   3   3    1.45    0.70
   2   3  -3    3.63    0.77
  -2   3   3    1.96    0.86
  -1   3   3   35.25    7.45
   1   3  -3   32.57    7.44
   0  -3  -3    1.18    0.54
   0   3   3    2.56    0.71
   0   3  -3    1.67    0.58
   0   3  -3    2.65    0.80
  -1  -3  -3    9.23    2.30
  -1   3  -3   10.75    2.40
  -1   3  -3   12.51    2.39
   1   3   3    9.68    2.36
  -2  -3  -3    9.32    2.24
  -2   3  -3   11.00    2.25
  -2   3  -3    6.83    2.32
   2   3   3    9.35    2.27
  -2   3  -3   11.98    2.24
  -2   3  -3   10.14    2.30
  -3  -3  -3    5.95    1.82
  -3  -3  -3    9.25    1.87
  -3   3  -3    5.44    1.94
  -3   3  -3    9.56    1.85
  -3   3  -3    7.84    1.84
   3   3   3    7.87    1.89
  -3   3  -3    9.46    1.92
  -3   3  -3    8.58    1.88
  -4  -3  -3   45.66    9.86
  -4  -3  -3   48.81    9.86
  -4   3  -3   44.14    9.93
  -4   3  -3   40.42    9.86
  -4   3  -3   45.37    9.84
  -4   3  -3   46.68    9.87
  -4   3  -3   43.51    9.85
   4   3   3   44.95    9.87
  -5  -3  -3    1.82    0.73
  -5   3  -3    2.01    0.87
  -5   3  -3    0.18    0.53
   5   3   3    2.45    0.92
  -5   3  -3    0.60    0.67
  -5   3  -3   -0.48    0.82
  -5   3  -3    1.18    0.69
  -6  -3  -3    2.01    0.77
  -6   3  -3   -0.16    0.56
  -6   3  -3   -1.15    0.68
   6   3   3    0.41    1.01
  -6   3  -3    0.24    0.88
  -6   3  -3   -1.43    0.73
  -7  -3  -3    2.82    1.16
   7   3   3    4.57    1.44
  -7   3  -3    4.23    1.26
  -7   3  -3    5.07    1.21
  -7   3  -3    3.60    1.08
  -8  -3  -3    1.80    1.06
  -8  -3  -3    1.35    0.95
  -8   3  -3    1.87    0.83
   8   3   3    2.18    1.23
  -8   3  -3    1.84    0.91
  -8   3  -3    2.24    0.99
  -9  -3  -3   -0.38    0.85
  -9  -3  -3   -0.27    0.73
  -9   3  -3    1.16    1.04
  -9   3  -3    0.13    0.84
   9   3   3    0.15    1.25
  -9   3  -3    0.31    0.69
 -10  -3  -3   -0.23    0.92
  10   3   3    0.19    1.41
 -10   3  -3   -0.27    1.22
 -10   3  -3    0.73    0.89
 -11  -3  -3   -0.30    0.96
 -11   3  -3    0.57    0.73
 -11   3  -3   -0.63    1.00
 -11   3  -3   -1.08    1.05
  11   3   3    1.06    1.62
 -12  -3  -3    0.07    1.01
 -12   3  -3    0.61    0.65
 -12   3  -3    0.32    1.08
  12   3   3   -1.33    1.86
 -12   3  -3    0.42    0.95
  13  -4  -3   -1.54    2.95
 -13  -4   3    0.64    0.97
  13   4  -3   -2.35    1.71
 -13   4   3    3.04    1.37
 -13   4   3    1.60    1.29
  13   4  -3    0.68    1.34
 -12  -4   3   -0.17    1.01
 -12   4   3   -0.42    1.22
  12   4  -3    0.82    1.17
 -12   4   3    1.61    1.26
  12   4  -3    0.26    1.39
 -11  -4   3    0.51    1.10
  11  -4  -3   -2.80    1.77
  11   4  -3    0.10    1.28
 -11   4   3   -0.34    1.23
 -10  -4   3    1.87    1.12
  10  -4  -3   -0.59    1.70
  10   4  -3    3.57    1.23
 -10   4   3    2.31    1.33
  -9  -4   3   -0.25    2.25
  -9  -4   3    0.13    0.89
   9   4  -3    0.08    0.96
  -9   4   3   -1.53    1.14
   8  -4  -3    5.66    1.91
  -8  -4   3    5.56    1.68
  -8  -4   3    6.09    2.28
   8   4  -3    9.53    1.75
  -8   4   3    5.28    1.78
  -7  -4   3    0.26    0.87
   7  -4  -3    1.69    1.18
  -7   4   3    0.84    1.01
   7   4  -3    1.70    0.95
   6  -4  -3    1.62    1.15
  -6  -4   3    4.86    1.41
   6   4  -3    3.22    1.04
  -6   4   3    1.75    0.96
   5  -4  -3   -0.21    0.85
  -5  -4   3    0.85    1.12
  -5   4   3    0.16    0.76
   5   4  -3    0.39    0.81
  -4   4   3   54.33   11.90
   4   4  -3   54.34   11.89
   3  -4  -3  180.57   38.86
  -3   4   3  175.66   38.85
   2  -4  -3    0.05    0.80
   2   4  -3   -0.24    0.63
  -2   4   3   -0.10    0.64
   2   4  -3   -0.38    0.58
  -2   4   3   -0.33    0.54
   1  -4  -3   16.94    3.07
  -1   4   3   11.82    2.99
  -1   4   3   12.41    2.95
   1   4  -3   11.65    2.94
   1   4  -3   13.65    2.97
  -1   4   3   13.91    2.98
   0  -4  -3    8.00    2.12
   0   4   3    9.96    2.18
   0   4   3    9.69    2.11
   0   4  -3    9.08    2.16
   0   4  -3   10.49    2.13
  -1  -4  -3    3.53    1.22
  -1   4  -3    5.10    1.31
  -1   4  -3    7.39    1.34
   1   4   3    4.72    1.27
  -1   4  -3    5.02    1.32
  -1   4  -3    6.77    1.21
   1   4   3    4.30    1.22
   1   4   3    4.17    1.37
  -2  -4  -3   19.16    3.60
  -2   4  -3   16.61    3.65
  -2   4  -3   13.26    3.64
  -2   4  -3   15.79    3.60
  -2   4  -3   13.03    3.64
   2   4   3   16.77    3.63
  -2   4  -3   17.40    3.61
  -3  -4  -3    3.38    1.24
  -3   4  -3    6.43    1.30
  -3   4  -3    3.08    1.41
   3   4   3    4.87    1.33
  -3   4  -3    5.58    1.37
  -3   4  -3    6.43    1.33
  -3   4  -3    6.15    1.26
  -4  -4  -3    1.66    0.81
  -4  -4  -3    0.79    0.61
  -4   4  -3    1.01    0.68
   4   4   3    1.42    0.80
  -4   4  -3    1.06    0.89
  -4   4  -3    2.77    0.97
  -4   4  -3    0.84    0.59
  -5  -4  -3    2.01    0.82
  -5   4  -3   -0.93    1.03
  -5   4  -3    2.73    0.85
  -5   4  -3    2.45    0.91
   5   4   3    2.89    0.95
  -5   4  -3    2.08    0.91
  -6  -4  -3    3.77    1.13
  -6  -4  -3    2.83    0.97
  -6   4  -3    1.63    0.80
  -6   4  -3    4.04    1.08
  -6   4  -3    5.94    1.10
   6   4   3    4.65    1.27
  -7  -4  -3   -0.38    0.76
   7   4   3    0.09    0.96
  -7   4  -3   -0.17    0.49
  -7   4  -3   -0.08    0.81
  -7   4  -3   -0.68    0.81
  -7   4  -3    0.27    0.76
  -8  -4  -3    2.45    1.46
   8   4   3    5.21    1.55
  -8   4  -3    5.78    1.37
  -8   4  -3    4.35    1.33
  -9  -4  -3    2.37    0.97
  -9  -4  -3    4.50    1.32
  -9   4  -3    2.11    1.09
   9   4   3    3.68    1.35
  -9   4  -3    3.68    1.11
  -9   4  -3    0.84    0.77
 -10  -4  -3    1.63    0.89
 -10  -4  -3    0.94    0.82
 -10   4  -3    1.12    1.03
 -10   4  -3   -0.32    0.56
 -10   4  -3    1.82    0.95
 -11  -4  -3   -1.14    0.93
 -11   4  -3   -0.02    0.79
  11   4   3    0.93    1.59
 -11   4  -3   -0.73    1.06
 -11   4  -3   -0.25    1.01
 -12  -4  -3    0.07    1.33
 -12   4  -3    0.44    0.90
 -12   4  -3    1.41    1.06
  12   4   3    3.57    1.72
 -12   4  -3    0.52    0.93
 -12  -5   3    2.23    1.21
 -12   5   3   -0.09    1.29
 -12   5   3   -0.21    1.27
  12   5  -3    2.27    1.59
  12   5  -3   -0.41    1.24
 -11  -5   3    1.97    1.18
  11  -5  -3   -3.31    2.70
 -11   5   3   -0.63    1.20
 -11   5   3    0.71    1.06
  11   5  -3    0.47    1.14
  11   5  -3    0.10    1.44
 -10  -5   3   -0.15    2.09
  10  -5  -3    5.30    2.79
  10   5  -3    5.89    1.55
  10   5  -3    2.88    1.35
 -10   5   3    2.31    1.74
  -9  -5   3    0.47    1.06
   9   5  -3    2.20    1.13
   9   5  -3    1.67    1.22
  -8  -5   3    2.40    1.27
   8  -5  -3    4.07    1.77
   8   5  -3    5.04    1.34
  -8   5   3    3.11    1.36
   7  -5  -3    2.83    1.81
  -7  -5   3    8.06    2.00
  -7   5   3    4.49    1.55
   7   5  -3    6.53    1.57
  -7   5   3    4.97    1.42
   6  -5  -3    6.10    1.79
  -6  -5   3    7.67    1.91
  -6   5   3    4.89    1.64
  -6   5   3    6.72    1.59
   6   5  -3    6.74    1.69
   5  -5  -3    7.32    2.04
  -5   5   3    6.55    2.04
   5   5  -3    8.94    1.93
   4  -5  -3   -1.25    0.71
   4   5  -3    0.26    0.66
  -4   5   3    0.14    0.70
  -4   5   3    0.26    1.42
  -4   5   3   -0.31    0.76
  -3   5   3   24.41    4.66
   3   5  -3   19.66    4.70
  -3   5   3   18.57    4.61
   2  -5  -3    2.65    0.88
  -2  -5   3   -0.12    1.50
  -2   5   3    1.04    0.63
  -2   5   3    1.89    0.75
  -2   5   3    1.55    0.89
   1  -5  -3    3.67    1.07
  -1   5   3    4.35    1.15
  -1   5   3    4.04    1.28
   1   5  -3    4.61    1.09
  -1   5   3    5.55    1.09
   0  -5  -3    0.21    0.48
   0   5   3   -0.11    0.47
   0   5  -3   -0.09    0.45
   0   5   3    0.16    0.86
   0   5  -3   -0.39    0.43
   0   5   3    0.48    0.60
   0   5  -3   -0.45    0.96
   0   5  -3   -1.72    1.05
  -1  -5  -3   29.65    6.16
  -1   5  -3   29.29    6.14
  -1   5  -3   28.01    6.20
   1   5   3   28.34    6.15
   1   5   3   24.17    6.16
  -1   5  -3   28.42    6.14
  -2  -5  -3    3.69    1.05
  -2   5  -3    1.75    1.13
   2   5   3    4.24    1.54
  -2   5  -3    4.02    1.00
   2   5   3    6.01    1.05
   2   5   3    3.92    1.12
  -2   5  -3    4.84    1.21
  -3  -5  -3   19.76    4.16
  -3   5  -3   16.24    4.15
  -3   5  -3   19.17    4.12
   3   5   3   18.55    4.15
  -3   5  -3   20.27    4.21
  -4  -5  -3   -0.18    1.52
  -4   5  -3    0.04    0.63
  -4   5  -3   -0.21    0.49
  -4   5  -3    0.58    0.87
   4   5   3    0.08    0.78
   4   5   3   -6.00    1.90
  -4   5  -3   -0.57    0.67
  -4   5  -3    1.60    1.13
  -5  -5  -3    5.42    1.62
  -5   5  -3    6.71    1.48
  -5   5  -3    6.29    1.54
  -5   5  -3    6.93    1.60
  -5   5  -3    6.91    1.45
  -5   5  -3    2.68    1.43
   5   5   3    4.67    1.52
  -6  -5  -3    5.59    2.11
  -6   5  -3    7.80    2.00
   6   5   3    9.31    2.10
  -6   5  -3    9.29    1.97
  -6   5  -3    8.91    2.01
  -6   5  -3    6.22    2.04
  -6   5  -3   11.01    2.08
  -7   5  -3    0.19    0.80
  -7   5  -3    1.34    0.81
   7   5   3    0.32    0.93
  -7   5  -3    2.08    0.98
  -7   5  -3    1.24    0.72
  -8  -5  -3   -1.10    0.92
   8   5   3    0.34    1.01
  -8   5  -3    1.93    0.73
  -8   5  -3    2.40    1.01
  -8   5  -3    0.91    1.16
  -9  -5  -3    6.95    1.81
   9   5   3    3.83    1.65
  -9   5  -3    3.32    1.61
  -9   5  -3    3.60    1.25
  -9   5  -3    6.94    1.49
 -10  -5  -3    1.01    0.99
 -10  -5  -3    3.99    2.70
 -10   5  -3   -0.40    1.02
 -10   5  -3   -0.52    0.99
  10   5   3   -1.12    1.45
 -10   5  -3   -1.94    0.73
 -11  -5  -3   -0.56    0.84
 -11   5  -3   -0.92    0.89
 -11   5  -3   -0.01    0.98
  11   5   3    0.05    1.41
 -11   5  -3    1.47    1.10
  12   5   3    6.34    2.10
 -12   5  -3    4.94    1.45
 -12   5  -3    2.67    1.39
 -12  -6   3    1.16    1.43
 -12   6   3    0.24    1.21
 -12   6   3    1.83    1.31
  12   6  -3    4.10    1.64
  12   6  -3    3.87    1.33
 -11  -6   3   -0.55    1.30
 -11   6   3    0.64    1.23
  11   6  -3    1.22    1.18
 -11   6   3   -1.21    1.17
  11   6  -3   -2.13    1.31
 -10  -6   3   -2.39    1.19
  10   6  -3   -0.95    1.63
 -10   6   3    0.71    1.15
   9  -6  -3    1.75    3.73
  -9  -6   3    0.22    1.25
   9   6  -3    4.07    1.43
  -9   6   3    1.00    1.10
   9   6  -3    6.16    1.38
  -8  -6   3    1.60    1.42
   8  -6  -3    3.39    2.35
   8   6  -3    0.31    1.13
   8   6  -3    3.02    1.10
  -8   6   3    0.16    1.45
  -7  -6   3   17.34    3.45
   7  -6  -3   14.31    3.64
  -7   6   3   15.06    3.19
  -7   6   3   10.29    3.24
   7   6  -3   13.72    3.19
   7   6  -3   14.90    3.25
   6  -6  -3    5.04    1.75
  -6  -6   3    5.21    1.95
  -6   6   3    6.13    1.35
   6   6  -3    4.88    1.38
   6   6  -3    4.26    1.30
  -6   6   3    3.78    1.34
   5  -6  -3   27.96    6.20
  -5   6   3   27.85    6.08
   5   6  -3   26.92    6.06
   4  -6  -3    2.13    1.12
  -4   6   3    1.75    0.72
   4   6  -3    0.98    0.73
   3  -6  -3    3.07    1.04
  -3  -6   3    0.59    1.54
  -3   6   3    0.81    0.61
   3   6  -3    2.17    0.77
  -3   6   3    2.00    1.01
  -2  -6   3   -0.58    1.94
   2  -6  -3    3.03    1.10
   2   6  -3    2.69    0.76
  -2   6   3    1.57    0.86
  -2   6   3    1.11    0.87
   1  -6  -3   13.02    3.10
  -1   6   3   17.40    3.11
  -1   6   3   18.88    3.35
   1   6  -3   10.61    3.10
   1   6  -3   14.27    3.11
   0  -6  -3   21.05    4.84
   0   6   3   21.84    4.93
   0   6   3   25.84    4.83
   0   6  -3   20.72    4.86
   0   6  -3   20.33    4.82
  -1  -6  -3    0.89    0.57
  -1   6  -3    1.42    0.68
  -1   6  -3    0.55    0.72
   1   6   3   -0.77    0.91
   1   6   3    1.04    0.98
  -1   6  -3    0.79    0.45
   1   6   3   -0.57    0.52
  -1   6  -3    1.07    0.72
  -2  -6  -3    3.53    1.10
  -2   6  -3    4.18    1.04
   2   6   3    4.26    1.16
  -2   6  -3    6.63    1.25
   2   6   3    4.08    1.63
  -2   6  -3    4.07    1.20
   2   6   3    3.52    1.07
  -3  -6  -3    1.21    0.70
  -3   6  -3    0.95    0.82
  -3   6  -3    1.38    0.74
  -3   6  -3    1.29    1.44
   3   6   3    0.96    0.75
  -3   6  -3    2.35    0.86
   3   6   3    0.11    1.58
  -4  -6  -3    4.87    1.28
  -4   6  -3    5.15    1.19
  -4   6  -3    2.26    0.88
   4   6   3    1.50    1.84
  -4   6  -3    4.44    1.22
  -4   6  -3    3.10    0.97
  -4   6  -3    3.31    1.04
   4   6   3    2.30    1.04
  -5  -6  -3    1.51    1.21
  -5   6  -3    1.76    0.94
  -5   6  -3    1.85    0.66
  -5   6  -3    1.74    1.10
   5   6   3   -0.86    2.02
   5   6   3    1.25    0.91
  -5   6  -3    3.30    0.89
  -6  -6  -3    0.55    1.10
  -6   6  -3   -0.10    0.94
  -6   6  -3   -0.70    0.74
  -6   6  -3    1.11    1.00
   6   6   3   -0.47    0.78
  -6   6  -3   -0.48    0.71
  -6   6  -3    0.61    0.59
  -7  -6  -3    4.22    1.35
   7   6   3    3.09    1.07
  -7   6  -3    2.47    1.04
  -7   6  -3    5.92    1.17
  -7   6  -3    0.78    0.72
  -7   6  -3    2.06    1.01
  -8   6  -3    1.33    1.05
   8   6   3    1.62    1.01
  -8   6  -3    1.63    0.92
  -8   6  -3   -0.59    0.50
  -8   6  -3    0.42    0.86
  -9  -6  -3    2.07    1.57
  -9   6  -3   -0.39    0.57
   9   6   3    0.42    1.07
  -9   6  -3    0.31    1.07
  -9   6  -3   -0.10    0.96
 -10  -6  -3    0.46    1.26
 -10   6  -3   -0.01    1.11
  10   6   3    2.51    1.36
 -10   6  -3    1.18    1.06
 -11  -6  -3   -0.10    0.95
 -11   6  -3    0.94    1.15
 -11   6  -3   -0.41    1.07
  11   6   3    1.45    1.29
 -11  -7   3   -0.07    1.37
 -11   7   3    0.31    1.17
  11   7  -3   -0.14    1.46
 -11   7   3    1.22    1.18
  11   7  -3    0.06    1.25
 -10  -7   3   -0.89    1.25
 -10   7   3   -0.01    1.12
  10   7  -3   -1.33    1.31
 -10   7   3   -0.12    0.87
  10   7  -3    1.83    1.28
  -9  -7   3    0.31    1.22
   9   7  -3   -1.76    1.42
  -9   7   3    1.14    0.96
  -8  -7   3   11.75    2.30
  -8   7   3    6.76    1.81
   8   7  -3    7.36    2.22
   8   7  -3    5.27    1.81
  -8   7   3    4.87    1.90
  -7  -7   3    0.55    1.61
   7  -7  -3   -3.04    2.69
   7   7  -3    0.54    0.88
  -7   7   3    0.99    1.11
  -6  -7   3    9.65    3.22
   6  -7  -3    7.65    2.80
   6   7  -3    8.51    2.01
  -6   7   3    8.21    2.09
  -6   7   3    8.12    2.05
   5  -7  -3    0.48    1.67
  -5   7   3    1.10    0.71
   5   7  -3   -0.76    0.66
   4  -7  -3    7.96    1.74
   4   7  -3    3.65    1.16
  -4   7   3    3.64    1.12
  -3  -7   3   -3.03    1.81
   3  -7  -3    0.05    1.36
   3   7  -3    1.93    0.72
  -3   7   3    0.94    0.90
  -3   7   3    1.61    0.69
   2  -7  -3    0.97    0.55
  -2   7   3    0.20    0.81
  -2   7   3   -0.89    0.54
   2   7  -3   -0.14    0.61
   2   7  -3    0.26    0.64
   1  -7  -3   10.76    2.48
  -1   7   3   11.49    2.57
  -1   7   3    9.80    2.50
   1   7  -3   11.49    2.47
   1   7  -3   11.34    2.50
  -1   7   3   10.59    2.60
   0  -7  -3    6.75    1.99
   0   7  -3    9.74    1.96
   0   7   3    6.99    2.02
   0   7  -3   10.88    1.95
   0   7   3    8.76    1.97
   0   7  -3    6.75    2.03
   0   7  -3    9.51    2.02
  -1  -7  -3    1.35    0.67
  -1   7  -3    1.19    0.85
  -1   7  -3    1.97    0.67
  -1   7  -3    1.09    0.49
   1   7   3    1.16    0.74
  -1   7  -3   -0.11    0.54
   1   7   3    0.70    1.01
   1   7   3    0.12    0.60
  -2  -7  -3    1.64    0.74
   2   7   3    1.73    1.40
   2   7   3    3.82    0.78
  -2   7  -3    0.71    0.84
  -2   7  -3    1.69    0.67
  -2   7  -3    1.81    0.82
  -2   7  -3    1.75    0.78
  -2   7  -3    1.35    0.61
   2   7   3    1.34    0.83
  -3  -7  -3    6.51    1.65
  -3   7  -3    5.76    1.44
   3   7   3    8.87    2.01
  -3   7  -3    6.33    1.63
   3   7   3    4.88    1.44
  -3   7  -3    9.32    1.61
  -3   7  -3    4.87    1.47
   3   7   3    4.48    1.54
  -3   7  -3    7.79    1.60
  -4  -7  -3    4.53    1.57
  -4   7  -3    6.26    1.39
  -4   7  -3    4.08    1.24
   4   7   3    1.95    2.54
  -4   7  -3    7.63    1.58
  -4   7  -3    3.80    1.25
   4   7   3    5.31    1.27
  -4   7  -3    6.97    1.48
   4   7   3    4.32    1.40
  -5  -7  -3    1.68    1.27
  -5   7  -3    0.83    0.97
  -5   7  -3    0.46    0.60
  -5   7  -3    1.34    1.08
  -5   7  -3    1.00    0.86
   5   7   3   -2.94    1.41
  -5   7  -3    1.29    0.64
   5   7   3    0.20    0.78
  -6  -7  -3    5.39    1.73
  -6   7  -3    3.44    1.39
  -6   7  -3    5.27    1.52
   6   7   3    5.19    1.38
  -6   7  -3    6.72    1.39
  -6   7  -3    3.54    1.22
  -7  -7  -3    0.68    1.45
  -7   7  -3    1.09    1.08
  -7   7  -3    1.23    0.92
   7   7   3    1.85    0.97
  -7   7  -3    0.64    1.09
  -7   7  -3    0.73    0.64
  -8   7  -3   -0.23    1.43
  -8   7  -3    2.07    1.25
   8   7   3   -1.18    0.92
  -8   7  -3    0.88    1.04
  -8   7  -3    0.24    0.94
  -9  -7  -3    4.53    1.74
   9   7   3    1.06    1.15
  -9   7  -3    2.47    1.15
  -9   7  -3    1.72    1.15
 -10  -7  -3    2.06    1.58
  10   7   3    0.83    1.03
 -10   7  -3    1.38    1.08
 -10   7  -3    0.59    1.11
 -10  -8   3   -1.64    1.34
  10   8  -3    0.10    1.45
 -10   8   3   -1.38    1.06
 -10   8   3    0.22    1.11
  -9  -8   3    2.90    1.59
   9   8  -3    6.42    1.57
  -9   8   3    3.99    1.21
  -9   8   3    2.89    1.27
  -8  -8   3    9.57    3.10
  -8   8   3    0.92    1.04
   8   8  -3   -0.75    1.09
  -8   8   3    0.34    1.08
  -7  -8   3   -1.20    1.92
  -7   8   3   -0.59    1.56
   7   8  -3    1.05    0.96
  -7   8   3    1.32    1.40
  -6  -8   3    0.59    2.07
  -6   8   3    2.33    1.03
   6   8  -3    0.18    0.88
  -6   8   3    0.68    0.91
   5  -8  -3   -0.89    2.49
  -5   8   3    0.35    0.78
   5   8  -3   -0.09    0.73
  -5   8   3    0.21    0.91
   4  -8  -3    0.69    2.18
   4   8  -3    2.73    0.88
  -4   8   3    2.05    0.83
   3  -8  -3    1.70    0.98
  -3   8   3    1.32    1.05
   3   8  -3    2.85    0.89
   3   8  -3    2.48    0.87
  -3   8   3    2.10    0.75
   2  -8  -3    1.68    0.77
  -2   8   3    0.38    0.94
   2   8  -3    0.71    0.61
  -2   8   3    2.07    0.65
   2   8  -3    1.34    0.76
   1  -8  -3    2.45    0.89
   1   8  -3    3.41    0.79
  -1   8   3    1.53    0.76
  -1   8   3    1.90    1.17
   1   8  -3    3.00    0.87
   0  -8  -3    0.52    0.70
   0   8   3    1.52    1.08
   0   8  -3    0.73    0.51
   0   8   3    1.41    0.58
   0   8  -3    0.16    0.59
   1   8   3    1.58    0.60
   1   8   3    1.04    0.88
  -1   8  -3    1.61    0.75
  -1   8  -3    1.51    0.57
  -1   8  -3    0.89    0.90
   1   8   3    0.86    1.04
  -2  -8  -3    0.06    0.76
  -2   8  -3    0.03    0.48
   2   8   3   -0.36    0.81
   2   8   3    1.32    0.98
  -2   8  -3   -0.35    0.88
  -2   8  -3   -0.98    0.73
   2   8   3    1.02    0.52
  -3  -8  -3    1.24    1.04
  -3   8  -3    0.55    0.89
   3   8   3    1.37    1.03
  -3   8  -3    0.59    0.59
  -3   8  -3    0.34    0.90
   3   8   3    0.05    0.53
  -3   8  -3   -0.35    0.49
  -3   8  -3    0.54    0.80
   3   8   3    0.24    0.77
  -4  -8  -3    3.62    1.43
   4   8   3    1.93    0.89
  -4   8  -3    1.52    0.93
   4   8   3    3.81    1.35
  -4   8  -3    4.84    1.16
  -4   8  -3    6.39    1.18
  -4   8  -3    2.89    0.90
  -4   8  -3    3.84    1.23
   4   8   3    2.46    1.10
  -5  -8  -3    1.60    1.34
  -5   8  -3   -0.49    0.87
   5   8   3   -2.88    1.30
   5   8   3   -0.08    0.79
   5   8   3    0.34    0.61
  -5   8  -3    0.28    0.65
  -5   8  -3   -0.24    0.85
  -5   8  -3    1.88    1.09
  -6  -8  -3   -1.24    1.56
  -6   8  -3   -0.36    0.70
  -6   8  -3    0.11    1.24
  -6   8  -3    1.11    0.94
   6   8   3    0.67    0.70
  -6   8  -3   -0.24    1.01
   6   8   3   -0.80    0.85
  -6   8  -3   -0.27    1.10
  -7  -8  -3    0.01    1.62
   7   8   3    0.30    0.96
   7   8   3    0.72    1.05
  -7   8  -3   -1.17    1.26
  -7   8  -3    0.98    0.95
  -7   8  -3   -0.35    1.02
  -8   8  -3    0.17    0.99
   8   8   3   -0.34    0.95
  -8   8  -3    1.06    1.13
  -8   8  -3    1.32    1.07
  -9  -8  -3    1.00    1.74
  -9   8  -3    0.96    1.12
  -9   8  -3    1.49    1.03
   9   8   3    0.67    0.99
 -10  -8  -3    0.05    1.69
 -10   8  -3   -0.51    1.08
  10   8   3    1.41    1.00
 -10   8  -3    0.32    0.91
  -9  -9   3    0.25    1.62
   9   9  -3   -1.11    1.35
  -9   9   3    0.63    1.20
  -9   9   3    2.91    1.10
  -8  -9   3   10.77    2.61
   8   9  -3    0.90    1.27
  -8   9   3    2.58    1.11
  -8   9   3    2.53    1.15
  -8   9   3    0.14    1.11
  -7  -9   3   -2.83    3.18
  -7   9   3   -0.26    1.02
  -7   9   3   -0.02    1.11
   7   9  -3    0.34    1.04
  -6  -9   3   -2.29    2.65
  -6   9   3    0.08    0.92
   6   9  -3    0.66    0.91
  -6   9   3   -0.91    1.08
  -5   9   3    0.61    1.30
   5   9  -3   -0.85    0.78
  -5   9   3   -0.83    0.83
   5   9  -3   -0.99    1.18
   4  -9  -3    3.60    1.72
  -4   9   3    4.38    1.16
   4   9  -3    3.57    1.20
   4   9  -3    4.16    1.21
   3  -9  -3    1.04    1.13
   3   9  -3   -0.23    0.70
  -3   9   3    1.48    1.33
   3   9  -3    0.39    0.79
  -3   9   3    0.08    0.65
   2  -9  -3    3.59    1.47
  -2   9   3    4.93    1.53
  -2   9   3    5.75    1.31
   2   9  -3    6.26    1.38
   2   9  -3    4.65    1.44
   1   9  -3    2.65    0.85
   1   9  -3    2.59    0.88
  -1   9   3    1.94    1.19
  -1   9   3    3.08    0.84
   0  -9  -3    7.43    2.11
   0   9  -3    8.81    1.93
   0   9   3   10.51    2.22
   0   9  -3    4.44    2.40
   0   9   3    8.70    1.93
   0   9  -3    8.10    1.98
  -1  -9  -3    0.48    0.91
  -1   9  -3    1.47    0.57
   1   9   3    0.76    0.61
  -1   9  -3    2.39    0.89
  -1   9  -3    1.21    1.03
   1   9   3    1.39    1.14
  -2  -9  -3    2.04    1.00
  -2   9  -3    1.90    0.83
  -2   9  -3    2.16    1.08
   2   9   3    2.35    1.12
   2   9   3    1.11    0.64
  -3  -9  -3   -1.26    1.21
  -3   9  -3   -0.61    0.85
  -3   9  -3   -0.86    0.93
   3   9   3   -0.81    1.03
   3   9   3    1.33    0.56
  -3   9  -3   -0.05    0.54
  -3   9  -3   -1.77    0.96
   3   9   3    0.32    0.84
  -4  -9  -3   -1.72    1.34
   4   9   3   -1.61    1.09
  -4   9  -3    0.68    1.02
   4   9   3   -0.46    0.94
   4   9   3   -0.24    0.55
  -4   9  -3    0.35    0.88
  -4   9  -3   -0.02    0.51
  -4   9  -3   -0.46    1.17
   5   9   3   -0.20    1.31
   5   9   3   -0.14    0.57
  -5   9  -3    0.07    0.77
  -5   9  -3    0.40    1.10
   5   9   3    0.30    0.91
  -5   9  -3    1.33    1.19
  -6  -9  -3    1.38    1.82
  -6   9  -3   -0.16    0.92
  -6   9  -3   -0.83    0.73
   6   9   3    0.14    0.59
   6   9   3    0.46    0.92
  -6   9  -3   -0.84    1.11
  -6   9  -3    0.15    0.93
  -7  -9  -3   -0.99    1.74
  -7   9  -3   -1.20    0.96
   7   9   3   -0.37    0.63
  -7   9  -3   -0.78    1.00
  -7   9  -3    0.44    0.80
   7   9   3    2.09    0.97
  -8   9  -3    1.19    1.08
   8   9   3    2.30    0.94
  -8   9  -3    1.12    1.12
  -8   9  -3    2.40    1.44
   8   9   3   -0.33    0.79
  -9  -9  -3    2.12    1.91
  -9   9  -3   -0.04    1.12
   9   9   3    0.34    0.90
  -9   9  -3   -0.66    0.92
   9   9   3    0.70    0.91
  -8 -10   3    7.68    3.44
  -8  10   3    0.08    1.08
  -8  10   3    0.51    0.99
  -8  10   3   -1.02    0.97
   8  10  -3   -0.92    1.15
   8  10  -3    0.29    0.84
  -7 -10   3    9.29    3.49
  -7  10   3   -0.37    1.08
   7  10  -3    0.12    0.94
  -7  10   3   -0.28    0.99
  -7  10   3   -1.27    1.11
   7  10  -3   -0.39    0.82
   6  10  -3   -0.52    0.93
   6  10  -3    0.21    0.84
  -6  10   3   -1.32    0.87
  -6  10   3   -0.65    1.13
  -6  10   3    0.03    1.23
   5  10  -3    0.78    0.72
   5  10  -3   -0.16    0.74
  -5  10   3    0.71    1.33
  -5  10   3   -0.31    0.83
  -5  10   3   -0.01    1.07
  -4  10   3    0.83    0.79
   4  10  -3    0.46    0.75
   4  10  -3    0.13    0.71
  -4  10   3    1.93    1.00
  -3  10   3    0.56    0.81
   3  10  -3    0.30    0.74
   3  10  -3   -0.42    0.73
   2 -10  -3    0.22    1.26
   2  10  -3    0.99    1.05
  -2  10   3    0.96    1.55
  -2  10   3    0.74    0.83
   2  10  -3    0.44    0.82
   1 -10  -3   -0.35    1.05
  -1  10   3   -0.30    0.58
  -1  10   3   -0.65    1.08
   1  10  -3   -0.45    1.00
   0 -10  -3    1.33    1.09
   0  10  -3    0.93    0.70
   0  10  -3   -0.91    1.01
   0  10   3   -2.17    1.03
   0  10   3   -0.07    0.54
  -1 -10  -3   -0.63    1.02
   1  10   3   -1.24    1.13
  -1  10  -3    2.89    1.25
   1  10   3    0.25    0.60
  -2 -10  -3   -0.38    1.28
   2  10   3    0.50    1.13
  -2  10  -3    1.01    0.66
  -2  10  -3    1.39    0.91
  -2  10  -3    2.21    1.65
   2  10   3    0.33    0.62
  -3 -10  -3    1.20    1.53
  -3  10  -3    0.74    0.68
  -3  10  -3    2.25    1.15
  -3  10  -3    2.23    0.98
   3  10   3    1.22    0.67
   3  10   3   -0.49    1.09
  -4 -10  -3   -2.15    1.59
  -4  10  -3   -0.47    1.04
  -4  10  -3    0.83    0.62
   4  10   3    0.12    1.48
  -4  10  -3    0.68    1.10
  -4  10  -3    0.07    0.86
   4  10   3   -0.14    0.56
  -5 -10  -3    3.34    1.77
  -5  10  -3    0.67    1.18
  -5  10  -3    0.42    1.05
   5  10   3    1.27    0.95
   5  10   3   -0.19    0.59
  -5  10  -3    2.06    0.96
   5  10   3    1.13    1.40
  -5  10  -3    0.16    0.71
  -6 -10  -3    1.04    1.68
  -6  10  -3    4.43    1.16
   6  10   3    2.64    1.10
  -6  10  -3    3.17    1.23
  -6  10  -3    1.88    0.90
   6  10   3    0.65    0.77
  -6  10  -3    2.59    1.06
   7  10   3    0.44    0.73
  -7  10  -3   -0.79    0.73
  -7  10  -3    1.19    0.99
   7  10   3    0.79    0.97
  -7  10  -3    0.57    1.00
  -6  11   3    2.27    1.26
   6  11  -3    1.96    1.08
  -6  11   3    7.84    1.82
   6  11  -3    1.57    0.88
  -6  11   3    1.43    1.05
  -5  11   3    0.86    1.13
   5  11  -3    0.77    0.88
  -5  11   3    1.98    1.76
   5  11  -3   -0.31    0.71
  -5  11   3    0.57    0.83
  -4  11   3    2.00    1.15
   4  11  -3    0.09    0.69
  -4  11   3    0.83    0.78
   4  11  -3    0.24    0.82
   3  11  -3    0.87    0.80
  -3  11   3    0.74    0.69
  -3  11   3    1.34    0.96
   3  11  -3    0.29    0.73
  -2  11   3    3.51    1.30
   2  11  -3    6.51    1.41
   2  11  -3    5.72    1.36
  -1  11   3    1.18    1.20
   1  11  -3    1.43    0.83
  -1  11   3    1.06    0.68
   1  11  -3    1.32    0.69
   0  11   3    2.12    1.20
   0  11   3    0.83    0.67
   0  11  -3    2.58    0.97
   0  11  -3    1.64    0.75
  -1 -11  -3    5.34    1.77
   1  11   3   -0.15    1.15
  -1  11  -3    1.39    0.67
  -1  11  -3    8.72    2.21
   1  11   3    0.76    0.63
  -1  11  -3    0.92    0.91
  -2 -11  -3    0.52    2.51
   2  11   3   -0.96    1.01
   2  11   3    0.18    0.56
  -2  11  -3   -0.22    0.61
  -2  11  -3    0.69    0.91
  -2  11  -3    0.28    1.34
  -3 -11  -3   -1.17    1.72
  -3  11  -3   -0.33    0.63
  -3  11  -3   -1.62    1.15
   3  11   3   -1.63    1.01
   3  11   3    0.12    0.58
  -3  11  -3    0.78    0.98
  -4 -11  -3    3.14    1.82
  -4  11  -3    0.33    0.93
  -4  11  -3    0.57    0.70
   4  11   3    1.17    0.65
   4  11   3    1.52    1.23
  -4  11  -3    1.57    1.12
  -5 -11  -3    0.45    1.71
  -5  11  -3   -0.02    0.88
  -5  11  -3   -0.32    0.96
   5  11   3    0.15    0.57
  -5  11  -3   -0.91    0.71
  -6 -11  -3    0.86    2.09
  -6  11  -3   -0.28    0.91
   6  11   3   -0.11    0.65
  -6  11  -3   -0.02    0.76
  -6  11  -3   -2.11    0.95
  -4  12   3    0.18    0.72
   4  12  -3    0.35    0.70
   4  12  -3   -0.15    0.89
   3  12  -3   -0.60    0.66
  -3  12   3    1.24    0.73
   3  12  -3    0.94    0.85
  -3  12   3   -0.44    1.07
  -2  12   3    0.02    0.61
   2  12  -3    0.57    0.69
  -2  12   3    0.74    1.10
   2  12  -3    0.63    0.87
   1  12  -3    1.41    0.72
   1  12  -3    1.12    0.87
  -1  12   3    1.82    1.05
  -1  12   3   -0.02    0.61
   0  12  -3    0.26    0.63
   0  12   3   -0.15    0.56
   0  12  -3   -0.08    0.86
  -1 -12  -3   -1.24    2.47
  -1  12  -3    1.70    0.92
   1  12   3    0.34    0.52
  -1  12  -3    0.23    0.68
  -2  12  -3    0.29    0.67
  -2  12  -3   -0.56    0.95
   2  12   3    0.44    0.54
  -3 -12  -3    3.63    3.16
   3  12   3    0.56    0.60
  -3  12  -3    0.67    0.86
  -3  12  -3    1.00    0.64
  -3  12  -3    2.10    1.69
  13   0  -4    0.83    1.31
 -13   0   4   -0.17    1.25
 -13   0   4    0.38    0.46
 -12   0   4    0.05    0.33
 -12   0   4   -0.99    1.15
  12   0  -4   -1.15    1.53
 -12   0   4    2.69    1.51
 -11   0   4    1.19    1.31
  11   0  -4    1.49    1.22
 -11   0   4    1.55    1.08
 -10   0   4    0.30    1.23
  10   0  -4    0.91    1.01
 -10   0   4    0.01    0.74
  -9   0   4    3.40    1.55
   9   0  -4    4.11    1.28
  -9   0   4    3.92    1.14
   8   0  -4   12.20    2.37
  -8   0   4    8.89    2.49
  -8   0   4    8.84    2.29
  -7   0   4    9.62    2.32
   7   0  -4    5.92    2.30
  -7   0   4   10.31    2.22
   6   0  -4    2.42    0.91
  -6   0   4    1.03    1.01
  -6   0   4    1.34    0.76
   5   0  -4    4.53    1.36
  -5   0   4    5.25    1.31
   4   0  -4    0.42    0.69
  -4   0   4    1.42    0.79
   3   0  -4   17.15    3.82
   3   0  -4   17.53    3.86
   2   0  -4   57.82   12.37
   2   0  -4   55.46   12.35
   1   0  -4    2.52    0.71
  -1   0   4    3.76    1.13
   1   0  -4    1.67    0.72
   0   0  -4  327.61   74.68
   0   0   4  328.38   74.68
   0   0  -4  355.17   74.68
   0   0  -4  358.49   74.68
  -1   0  -4   13.87    2.83
   1   0   4   12.19    2.89
  -1   0  -4   12.21    2.81
  -2   0  -4    0.13    0.48
  -2   0  -4    0.89    0.71
  -2   0  -4    0.31    0.41
   2   0   4    0.85    0.74
  -3   0  -4   48.50   10.98
  -3   0  -4   51.84   10.98
   4   0   4    0.25    1.33
  -4   0  -4    0.31    0.70
   5   0   4   13.53    3.20
  -6   0  -4    3.22    1.00
   6   0   4    0.45    1.43
  -7   0  -4    8.64    2.08
   7   0   4    6.99    2.32
  -7   0  -4    8.59    2.05
  -8   0  -4   13.70    3.54
  -8   0  -4   16.59    3.51
  -9   0  -4   -0.27    0.90
   9   0   4    3.90    1.89
  -9   0  -4    1.09    1.14
 -10   0  -4    1.20    1.12
 -10   0  -4    2.27    1.31
 -11   0  -4    1.13    0.99
 -11   0  -4    1.08    0.66
 -12   0  -4    0.28    0.63
 -12   0  -4    0.14    0.99
  13  -1  -4    1.79    1.36
 -13  -1   4    0.17    1.31
 -13  -1   4    0.26    0.35
  13   1  -4    0.41    1.39
 -13   1   4   -2.04    1.35
 -13   1   4    0.70    1.26
 -12  -1   4   -0.16    1.11
  12  -1  -4    0.73    1.49
 -12  -1   4   -0.95    1.05
 -12   1   4   -1.35    2.52
 -12   1   4    0.25    0.94
 -12   1   4    0.17    0.45
  12   1  -4    0.56    1.86
 -11  -1   4    0.98    0.87
  11  -1  -4    2.26    1.33
 -11   1   4    0.70    0.42
 -11   1   4    4.10    1.25
  11   1  -4    2.36    1.24
  10  -1  -4    0.95    0.99
 -10  -1   4    0.15    0.75
 -10   1   4   -0.13    0.29
  10   1  -4    0.77    0.93
 -10   1   4    0.54    1.11
  -9  -1   4    3.09    0.94
   9  -1  -4    3.66    1.23
   9   1  -4    2.50    1.06
  -9   1   4    2.08    1.32
  -8  -1   4    1.97    0.92
  -8   1   4    2.68    0.93
  -8   1   4    4.10    1.19
   8   1  -4    1.86    0.96
  -7  -1   4    0.16    0.80
   7  -1  -4    1.29    0.95
  -7   1   4    1.57    0.76
  -7   1   4    1.30    0.88
  -6  -1   4    2.14    0.86
   6  -1  -4    1.21    0.94
  -6   1   4    0.82    0.85
   6   1  -4    1.15    0.82
  -6   1   4    1.42    0.76
   5  -1  -4    2.20    1.04
  -5  -1   4    3.36    1.07
   5   1  -4    3.71    1.05
  -5   1   4    3.30    1.05
   4  -1  -4   -0.40    0.71
  -4  -1   4    0.64    0.85
   4   1  -4    0.26    0.39
   4   1  -4    0.22    0.62
  -4   1   4   -0.35    0.94
  -3  -1   4   20.15    3.72
   3  -1  -4   14.18    3.61
   3   1  -4   15.07    3.57
   3   1  -4   17.16    3.61
  -2  -1   4    4.41    1.27
   2  -1  -4    2.87    0.97
   2   1  -4    3.80    0.94
   2   1  -4    3.57    1.01
   1  -1  -4   17.51    3.69
  -1   1   4   16.86    3.66
   1   1  -4   15.19    3.65
   0  -1  -4   16.92    3.59
   0  -1  -4   14.68    3.62
   0   1   4   18.20    3.66
   0   1  -4   16.54    3.63
   0   1  -4   15.73    3.60
  -1  -1  -4   31.77    6.39
  -1  -1  -4   28.80    6.40
  -1  -1  -4   28.63    6.40
   1   1   4   26.26    6.42
  -1   1  -4   31.54    6.40
  -1   1  -4   27.16    6.39
  -2  -1  -4    2.49    0.64
  -2  -1  -4    1.80    0.59
  -2   1  -4    3.44    0.82
  -2   1  -4    2.15    0.60
  -2   1  -4    2.56    0.85
   2   1   4    1.43    0.87
  -3  -1  -4    1.23    0.66
  -3  -1  -4    1.42    0.61
   3   1   4    0.37    0.92
  -3   1  -4    1.21    0.53
  -3   1  -4    2.37    0.77
  -3   1  -4    1.80    0.76
  -4  -1  -4   -0.24    0.64
  -4  -1  -4    0.76    0.45
  -4   1  -4    1.17    0.82
   4   1   4    0.45    0.88
  -4   1  -4   -0.75    0.46
  -5  -1  -4    6.50    1.87
  -5  -1  -4    7.22    1.81
  -5   1  -4    6.92    1.80
   5   1   4    6.57    1.97
  -5   1  -4   10.60    1.87
  -6  -1  -4   10.35    2.75
   6  -1   4    3.49    3.61
  -6  -1  -4   10.86    2.72
  -6   1  -4   12.10    2.75
  -6   1  -4   12.10    2.72
  -6   1  -4   14.88    2.76
  -7  -1  -4   23.94    5.22
  -7  -1  -4   22.62    5.26
  -7   1  -4   26.02    5.23
  -7   1  -4   23.34    5.21
   7   1   4   19.73    5.30
  -8  -1  -4    6.12    1.56
  -8   1  -4    6.29    1.61
   8   1   4    5.10    1.85
  -8   1  -4    4.66    1.41
  -8   1  -4    6.61    1.58
  -9  -1  -4   -0.19    0.88
  -9   1  -4   -0.54    0.53
   9   1   4    0.02    2.09
  -9   1  -4   -0.67    0.90
  -9   1  -4    1.35    1.11
 -10  -1  -4    0.36    1.00
 -10   1  -4    0.86    1.35
  10   1   4    2.55    1.77
 -10   1  -4    1.05    0.64
 -10   1  -4    1.07    0.93
 -11  -1  -4    0.24    0.92
 -11   1  -4    0.45    1.12
 -11   1  -4    0.67    0.64
 -11   1  -4    1.53    0.91
  11   1   4   -8.79    2.28
 -12  -1  -4   -0.62    0.92
 -12  -1  -4   -0.07    0.59
 -12   1  -4   -0.09    0.61
 -12   1  -4   -0.21    0.90
 -13  -2   4   -0.79    1.12
  13  -2  -4   -1.36    1.58
 -13  -2   4    1.43    1.56
 -13   2   4    0.96    1.26
  13   2  -4    1.14    1.36
 -13   2   4    1.38    1.43
 -12  -2   4   -0.94    1.26
  12  -2  -4    3.68    1.73
 -12  -2   4   -0.37    0.92
  12   2  -4    1.13    1.22
 -12   2   4    1.80    1.31
  11  -2  -4    3.19    1.30
 -11  -2   4    1.52    0.93
  11   2  -4    4.17    1.45
 -11   2   4    3.03    1.29
 -11   2   4    1.45    0.93
 -10  -2   4    1.13    0.80
  10  -2  -4    0.26    1.11
 -10   2   4   -0.93    1.08
  10   2  -4    0.28    0.88
 -10   2   4    0.46    0.40
  -9  -2   4    0.62    0.77
   9  -2  -4   -1.56    0.95
   9   2  -4    0.63    0.81
  -9   2   4   -0.44    1.00
  -9   2   4   -0.04    0.35
  -8  -2   4    0.00    0.80
   8  -2  -4   -0.30    1.00
  -8   2   4   -0.40    0.83
   8   2  -4    0.96    0.76
  -8   2   4    0.10    0.27
  -7  -2   4    1.43    1.00
   7  -2  -4    0.68    0.93
  -7   2   4   -0.66    0.95
  -7   2   4    0.16    0.27
   7   2  -4    0.64    0.76
  -6  -2   4   42.31    8.88
   6  -2  -4   39.91    8.89
   6   2  -4   38.92    8.87
   5  -2  -4   19.94    4.45
  -5  -2   4   19.24    4.46
   5   2  -4   20.15    4.43
   4  -2  -4   13.34    2.63
  -4  -2   4   12.33    2.71
   4   2  -4   12.40    2.62
   4   2  -4   10.99    2.57
  -4   2   4    9.48    2.57
   3  -2  -4   33.60    7.59
  -3  -2   4   32.17    7.61
   3   2  -4   36.66    7.56
   3   2  -4   34.88    7.57
   2  -2  -4    9.70    2.22
  -2  -2   4    8.91    2.31
   2   2  -4   10.54    2.20
  -2   2   4    8.75    2.32
   1   2  -4    6.33    1.45
  -1   2   4    6.38    1.59
   0  -2  -4    9.61    2.23
   0   2  -4    9.46    2.23
   0   2  -4   11.25    2.24
  -1  -2  -4    0.19    0.35
  -1   2  -4   -0.27    0.41
  -1   2  -4    0.35    0.54
  -1   2  -4    0.56    0.64
   1   2   4    0.42    0.65
  -2  -2  -4    8.18    1.75
  -2  -2  -4    6.28    1.71
  -2   2  -4    7.48    1.71
   2   2   4    6.90    1.83
  -2   2  -4   10.56    1.85
  -3  -2  -4    0.35    0.42
  -3  -2  -4    0.41    0.53
  -3   2  -4    0.88    0.77
  -3   2  -4    0.82    0.65
  -3   2  -4   -0.36    0.36
  -4  -2  -4   16.90    3.80
  -4  -2  -4   17.20    3.81
  -4   2  -4   17.72    3.84
   4   2   4   16.48    3.88
  -5  -2  -4    8.06    1.73
   5   2   4    6.91    1.86
  -5   2  -4    7.51    1.71
  -5   2  -4    6.06    1.67
  -6  -2  -4    2.22    0.80
  -6   2  -4    1.94    0.75
   6   2   4    1.19    1.10
  -6   2  -4    2.59    1.07
  -6   2  -4    0.96    0.76
  -7  -2  -4    5.10    1.56
  -7   2  -4    7.85    1.66
  -7   2  -4    6.03    1.55
   7   2   4    5.48    1.85
  -8  -2  -4    2.78    1.02
  -8   2  -4    2.00    0.91
  -8   2  -4    2.62    1.10
   8   2   4    2.46    1.96
  -8   2  -4    3.75    1.11
  -9  -2  -4    1.27    0.95
   9   2   4    1.16    1.44
  -9   2  -4    2.76    1.04
  -9   2  -4   -0.07    0.89
  -9   2  -4   -0.21    0.64
 -10  -2  -4    1.45    0.99
  10   2   4    0.27    1.64
 -10   2  -4    1.11    1.17
 -10   2  -4    0.68    1.19
 -10   2  -4    0.37    0.70
 -11  -2  -4   -0.14    0.86
 -11   2  -4    0.50    1.00
 -11   2  -4    0.53    1.00
 -11   2  -4   -0.41    0.62
  11   2   4   -2.88    2.34
 -12  -2  -4    1.59    0.83
  12   2   4   -2.78    2.40
 -12   2  -4    0.64    0.63
 -12   2  -4   -0.21    0.83
 -12   2  -4    0.46    1.06
 -13  -3   4    0.59    0.97
  13  -3  -4    1.36    1.66
  13   3  -4   -1.54    1.25
 -13   3   4    2.00    1.39
 -13   3   4   -1.17    1.19
 -12  -3   4    0.82    1.88
 -12  -3   4   -0.29    0.97
  12  -3  -4   -2.22    2.19
 -12   3   4    1.38    1.29
  12   3  -4   -0.45    1.16
 -11  -3   4    2.26    1.50
  11  -3  -4   -2.18    1.37
 -11  -3   4    1.29    1.00
  11   3  -4    3.00    1.07
 -11   3   4   -1.30    1.34
 -10  -3   4    2.68    1.34
 -10  -3   4    3.41    1.08
  10  -3  -4    1.15    1.33
  10   3  -4    2.38    1.04
 -10   3   4    2.08    0.94
 -10   3   4    2.16    1.30
  -9  -3   4   -1.05    0.85
   9  -3  -4    1.40    1.15
  -9   3   4   -0.56    0.67
   9   3  -4    0.43    0.84
  -9   3   4   -0.02    1.15
  -8  -3   4    1.44    0.93
   8  -3  -4    2.88    1.70
   8   3  -4    1.00    0.83
  -8   3   4    0.78    0.71
  -8   3   4    0.46    1.02
  -7  -3   4    1.75    0.95
   7  -3  -4   -0.53    0.98
   7   3  -4   -0.15    0.78
  -7   3   4    0.28    0.65
  -7   3   4    0.67    0.95
  -6  -3   4    0.41    0.87
   6  -3  -4    1.11    0.96
   6   3  -4   -0.54    0.75
  -6   3   4   -1.09    0.81
  -6   3   4    0.22    0.69
  -5  -3   4    1.03    0.81
   5  -3  -4    0.44    0.80
   4  -3  -4   12.72    2.75
  -4  -3   4    9.59    2.81
   4   3  -4   11.18    2.70
  -4   3   4   14.13    2.69
  -4   3   4   10.85    2.78
   3  -3  -4    4.25    1.12
  -3  -3   4    3.68    1.26
  -3   3   4    3.48    1.12
   3   3  -4    5.15    1.12
  -3   3   4    4.00    1.29
  -2  -3   4    3.39    1.75
  -2   3   4    5.87    1.54
   2   3  -4    6.83    1.38
  -2   3   4    5.16    1.43
   1  -3  -4   10.49    1.91
   1   3  -4    7.11    1.74
  -1   3   4    6.67    1.86
   0  -3  -4    2.90    0.93
   0   3  -4    3.79    0.92
   0   3  -4    4.48    0.94
   0   3  -4    4.21    1.27
   0   3   4    4.98    1.09
   0   3  -4    3.62    0.95
  -1  -3  -4    3.57    1.14
  -1   3  -4    4.80    1.26
  -1   3  -4    3.55    1.29
  -1   3  -4    6.77    1.27
   1   3   4    4.36    1.26
  -1   3  -4    6.69    1.17
  -2  -3  -4    0.10    0.39
  -2   3  -4   -0.42    0.50
  -2   3  -4    0.25    0.49
  -2   3  -4    0.92    0.76
   2   3   4   -0.01    0.65
  -2   3  -4   -1.35    0.70
  -2   3  -4    0.98    0.77
  -3  -3  -4   45.83    9.16
  -3  -3  -4   35.98    9.16
   3   3   4   41.78    9.18
  -3   3  -4   39.37    9.20
  -3   3  -4   47.50    9.16
  -3   3  -4   44.11    9.18
  -3   3  -4   38.48    9.15
  -4  -3  -4    4.07    1.19
  -4  -3  -4    1.80    1.59
  -4   3  -4    9.25    1.54
  -4   3  -4    5.56    1.24
  -4   3  -4    2.15    1.33
   4   3   4    7.82    1.37
  -5  -3  -4   22.93    5.27
  -5  -3  -4   21.87    5.25
   5   3   4   27.82    5.33
  -5   3  -4   21.64    5.24
  -5   3  -4   21.82    5.33
  -5   3  -4   25.51    5.28
  -5   3  -4   28.40    5.33
  -6  -3  -4    0.88    0.68
   6   3   4   -0.21    0.99
  -6   3  -4    0.10    0.48
  -6   3  -4   -1.59    0.88
  -6   3  -4    0.86    0.74
  -7  -3  -4    0.08    0.60
  -7   3  -4    0.45    0.57
  -7   3  -4   -0.50    0.93
  -7   3  -4    0.15    0.79
  -8  -3  -4    1.08    0.96
  -8  -3  -4   -0.51    0.61
   8   3   4    2.78    1.29
  -8   3  -4    0.17    0.84
  -8   3  -4    0.77    0.97
  -8   3  -4   -0.03    0.63
  -9  -3  -4    1.97    0.84
   9   3   4    2.76    1.55
  -9   3  -4    1.00    0.94
  -9   3  -4    1.99    1.02
  -9   3  -4    0.67    0.71
 -10  -3  -4    1.35    0.91
  10   3   4    3.60    1.66
 -10   3  -4   -0.02    0.74
 -10   3  -4    1.10    0.98
 -10   3  -4    1.88    1.01
 -11  -3  -4    0.53    0.79
  11   3   4    2.15    3.18
 -11   3  -4    0.43    1.01
 -11   3  -4   -0.10    0.88
 -11   3  -4    0.65    0.68
 -12  -3  -4    1.35    0.83
 -12   3  -4    0.05    0.56
  12   3   4   -0.94    2.23
 -12   3  -4   -1.56    0.83
 -12   3  -4   -0.26    0.98
  13  -4  -4   -4.02    3.06
 -13  -4   4    1.47    1.08
 -13   4   4   -0.73    1.37
  13   4  -4    1.34    1.40
  13   4  -4    1.91    1.31
 -13   4   4   -0.66    1.18
  12  -4  -4   -0.98    1.75
 -12  -4   4   -0.40    1.05
  12   4  -4   -0.03    1.23
 -12   4   4    0.75    1.21
 -12   4   4    0.77    0.96
  11  -4  -4    4.58    2.36
 -11  -4   4    2.66    1.82
  11   4  -4    7.42    2.08
 -11   4   4    4.40    1.63
 -10  -4   4    3.32    1.87
  10  -4  -4    3.68    1.58
 -10   4   4    4.06    1.49
  10   4  -4    3.70    1.57
  -9  -4   4    1.14    2.96
  -9  -4   4    0.91    0.97
   9  -4  -4   -0.10    1.31
   9   4  -4    0.99    0.92
  -9   4   4   -0.39    0.92
  -8  -4   4   10.81    2.32
   8  -4  -4   13.58    2.60
  -8   4   4    7.67    2.32
  -8   4   4    8.25    2.22
   8   4  -4    9.07    2.26
   7  -4  -4    2.75    1.30
  -7  -4   4    4.32    1.83
  -7   4   4    2.35    1.02
   7   4  -4    3.61    1.11
  -7   4   4    3.31    1.19
   6  -4  -4   -0.47    0.90
  -6  -4   4    1.28    0.93
  -6   4   4   -0.14    0.77
   6   4  -4   -0.97    0.79
   5  -4  -4    2.62    1.03
  -5  -4   4    3.24    1.38
  -5   4   4    3.25    0.96
  -5   4   4    2.74    1.02
   5   4  -4    1.72    0.93
   4  -4  -4    5.21    1.62
  -4   4   4    8.36    1.67
  -4   4   4    8.89    2.05
   3  -4  -4   15.76    3.22
  -3  -4   4   13.71    3.50
  -3   4   4   15.15    3.27
  -3   4   4   12.00    3.19
   2  -4  -4    1.67    0.81
  -2   4   4    1.79    0.90
  -2   4   4    1.22    0.65
   1  -4  -4    0.92    0.86
  -1   4   4    0.01    0.70
   1   4  -4   -1.10    0.41
   1   4  -4    0.85    0.76
  -1   4   4   -1.04    0.54
   0  -4  -4    4.53    1.51
   0   4  -4    5.91    1.51
   0   4  -4    7.63    1.50
   0   4   4    6.24    1.54
   0   4  -4    8.22    1.61
   0   4  -4    7.55    1.50
   0   4   4    6.96    1.61
  -1  -4  -4    8.69    2.19
  -1   4  -4    8.25    2.28
   1   4   4    9.61    2.22
  -1   4  -4   11.17    2.16
  -1   4  -4    8.82    2.24
  -1   4  -4    9.10    2.17
  -1   4  -4   11.52    2.28
  -2  -4  -4    1.62    0.70
   2   4   4    2.20    0.85
  -2   4  -4    3.39    0.90
  -2   4  -4    2.77    0.73
  -2   4  -4    1.06    0.90
  -2   4  -4    3.77    0.75
  -2   4  -4    4.21    0.94
   2   4   4    1.05    0.78
  -3  -4  -4   -0.10    0.47
  -3   4  -4    0.98    0.91
   3   4   4    0.26    0.67
  -3   4  -4    0.84    0.82
  -3   4  -4    0.88    0.58
   4   4   4   -0.79    0.74
  -4   4  -4   -0.31    0.65
  -4   4  -4   -0.40    0.92
  -4   4  -4    0.13    0.59
  -4   4  -4    0.51    0.96
  -5  -4  -4    0.17    0.51
  -5  -4  -4    0.73    0.80
  -5   4  -4    0.74    0.70
  -5   4  -4   -0.17    0.63
  -5   4  -4   -0.19    0.84
   5   4   4    0.87    1.13
  -5   4  -4    0.26    0.53
  -5   4  -4    0.90    1.02
  -6  -4  -4    1.15    0.93
  -6  -4  -4    2.35    0.79
  -6   4  -4    1.08    1.30
  -6   4  -4    2.44    0.84
   6   4   4    2.48    1.40
  -6   4  -4    1.30    0.75
  -6   4  -4    3.02    0.99
  -6   4  -4    1.70    0.85
  -7  -4  -4    0.92    0.66
   7   4   4   -1.47    1.09
  -7   4  -4   -1.07    0.85
  -7   4  -4    0.31    0.83
  -7   4  -4    0.73    0.73
  -8  -4  -4    0.15    1.03
  -8  -4  -4    0.76    0.63
  -8   4  -4    0.76    1.26
  -8   4  -4    0.82    0.85
  -8   4  -4   -0.52    0.92
   8   4   4    0.42    1.16
  -9  -4  -4   -0.66    0.71
  -9  -4  -4   -1.09    1.21
  -9   4  -4    1.46    1.02
   9   4   4   -0.45    1.32
  -9   4  -4    2.10    1.03
  -9   4  -4   -0.58    1.06
 -10  -4  -4    0.50    0.99
 -10   4  -4    3.69    1.25
 -10   4  -4    3.48    1.13
  10   4   4    2.80    1.60
 -10   4  -4    2.92    1.12
 -11  -4  -4    0.90    0.96
 -11   4  -4    0.53    0.80
 -11   4  -4    0.70    0.98
 -11   4  -4   -0.50    0.87
  11   4   4    0.85    1.88
 -12  -4  -4    1.77    1.00
 -12   4  -4    0.59    1.01
  12   4   4    2.58    2.34
 -12   4  -4    1.27    0.97
 -12   4  -4    0.68    1.06
 -12  -5   4    7.20    2.20
  12  -5  -4    4.99    3.01
  12   5  -4    7.01    2.31
 -12   5   4   10.00    2.21
  12   5  -4   10.17    2.27
 -12   5   4    7.48    2.20
  11  -5  -4    2.51    2.11
 -11  -5   4   -0.50    1.25
  11   5  -4   -0.61    1.23
 -11   5   4    1.25    1.31
  11   5  -4    3.22    1.43
  10  -5  -4    1.42    1.75
 -10  -5   4   -0.73    1.19
  10   5  -4   -0.61    1.12
 -10   5   4   -2.57    1.27
  10   5  -4   -2.29    1.91
   9  -5  -4    0.32    1.56
  -9  -5   4    1.02    1.08
  -9   5   4    0.92    1.03
   9   5  -4    0.70    1.16
  -8  -5   4    0.79    1.08
   8   5  -4    2.01    1.06
  -8   5   4    1.51    1.08
  -7  -5   4    0.37    1.11
   7  -5  -4    0.71    1.29
  -7   5   4    1.35    0.94
   7   5  -4    0.13    0.95
  -6  -5   4    9.69    3.00
   6  -5  -4   13.17    2.83
   6   5  -4    9.38    2.71
  -6   5   4   11.88    2.72
  -6   5   4   14.45    2.78
  -5  -5   4   15.01    2.77
   5  -5  -4    7.93    2.42
  -5   5   4   10.26    2.41
  -5   5   4   11.11    2.46
  -4  -5   4    1.46    1.81
   4  -5  -4    3.55    1.10
   4   5  -4    3.13    1.10
  -4   5   4    4.97    1.23
  -4   5   4    4.13    1.12
  -3   5   4   17.83    3.65
   3   5  -4   15.08    3.63
   2   5  -4    5.74    1.43
   2   5  -4    6.11    1.36
  -2   5   4    8.28    1.56
  -2   5   4    3.76    1.35
   1  -5  -4    0.30    0.43
  -1   5   4   -0.07    0.45
   1   5  -4    0.00    0.47
  -1   5   4    0.27    0.80
   1   5  -4    0.11    0.67
   0  -5  -4    1.63    0.65
   0   5  -4    1.75    0.59
   0   5  -4    0.17    0.86
   0   5   4    2.17    0.61
   0   5  -4    1.72    0.92
   0   5  -4    1.61    0.61
   0   5  -4    1.66    0.91
   0   5   4    2.37    0.75
  -1  -5  -4   31.22    6.48
  -1   5  -4   28.73    6.48
  -1   5  -4   27.48    6.49
   1   5   4   29.99    6.48
  -2  -5  -4    3.37    0.91
  -2   5  -4    2.90    1.09
  -2   5  -4    2.49    0.83
  -2   5  -4    4.69    1.03
  -2   5  -4    2.72    0.97
   2   5   4    4.01    0.89
  -3  -5  -4    1.21    0.60
   3   5   4    0.87    0.65
  -3   5  -4    0.18    0.68
  -3   5  -4    0.30    0.50
   3   5   4    0.11    0.70
  -3   5  -4    0.30    1.29
  -4  -5  -4    2.99    0.97
  -4   5  -4    1.58    0.95
  -4   5  -4    3.01    0.82
  -4   5  -4    3.11    0.99
  -4   5  -4    1.67    0.71
  -4   5  -4    0.51    1.06
   4   5   4    2.64    0.90
  -5  -5  -4    1.58    0.95
  -5   5  -4    2.28    1.01
  -5   5  -4    1.11    0.68
  -5   5  -4   -0.02    0.69
   5   5   4    1.15    0.84
  -5   5  -4    1.39    0.83
  -5   5  -4    1.47    0.82
  -6  -5  -4    0.85    1.00
   6   5   4    1.51    1.01
  -6   5  -4    1.08    0.84
  -6   5  -4    1.93    0.96
  -6   5  -4    2.62    0.93
  -6   5  -4    2.67    0.81
   7   5   4    4.17    1.33
  -7   5  -4    2.24    1.12
  -7   5  -4    2.90    1.04
  -7   5  -4    4.19    1.21
  -7   5  -4    3.56    1.17
  -8   5  -4    1.21    0.95
   8   5   4    0.76    1.17
  -8   5  -4    1.67    1.06
  -8   5  -4    1.42    0.78
  -9  -5  -4    0.58    1.20
  -9   5  -4    1.14    0.98
   9   5   4    1.79    1.96
  -9   5  -4   -0.61    0.76
  -9   5  -4    1.82    1.17
 -10  -5  -4    0.16    0.84
  10   5   4    2.53    1.48
 -10   5  -4    1.50    1.02
 -10   5  -4    0.99    1.07
 -10   5  -4   -0.29    0.80
  11   5   4    3.92    1.84
 -11   5  -4    3.49    1.20
 -11   5  -4    1.72    0.97
 -11   5  -4    2.91    1.19
 -12  -6   4    0.19    1.34
 -12   6   4   -0.72    1.23
  12   6  -4    0.08    1.14
  12   6  -4    3.27    1.39
 -12   6   4    0.93    1.23
  11  -6  -4    2.73    3.08
 -11  -6   4    1.36    1.34
  11   6  -4    0.08    1.29
  11   6  -4   -0.67    1.34
 -11   6   4    0.80    1.23
 -10  -6   4   -2.37    2.18
  10  -6  -4    4.24    2.56
  10   6  -4   -0.34    1.35
  10   6  -4   -0.05    1.25
 -10   6   4   -0.16    1.17
   9  -6  -4    2.78    2.10
  -9  -6   4   -0.88    1.21
  -9   6   4    0.05    1.50
   9   6  -4    1.11    1.30
   9   6  -4   -0.33    1.16
   8  -6  -4    3.06    1.57
  -8  -6   4    0.66    1.11
   8   6  -4    2.14    1.12
  -8   6   4   -0.01    1.06
  -7  -6   4    1.43    1.25
  -7   6   4    3.58    1.14
   7   6  -4    4.00    1.20
   7   6  -4    4.44    1.15
  -7   6   4    2.83    1.21
   6  -6  -4   -0.13    1.19
  -6  -6   4   -1.67    1.99
  -6   6   4    0.40    0.84
  -6   6   4    1.45    0.85
   6   6  -4    1.97    0.84
   5  -6  -4    8.83    2.27
  -5  -6   4    8.84    2.62
  -5   6   4    7.93    2.13
   5   6  -4    9.75    2.12
   4  -6  -4    1.25    0.99
   4   6  -4    0.40    0.70
  -4   6   4    0.70    0.85
  -4   6   4    0.56    0.72
   3  -6  -4    9.99    1.81
   3   6  -4    6.73    1.63
  -3   6   4    5.54    1.59
  -3   6   4    6.12    1.71
   2  -6  -4   -0.21    0.46
   2   6  -4    0.34    0.62
  -2   6   4    0.89    0.61
   2   6  -4    0.63    0.48
  -2   6   4    0.26    0.74
   1  -6  -4    0.61    0.51
   1   6  -4    1.90    0.54
  -1   6   4    0.25    0.53
   1   6  -4    0.86    0.49
  -1   6   4    1.21    0.72
   1   6  -4    1.21    0.70
   0  -6  -4    1.06    0.65
   0   6  -4    1.15    0.78
   0   6   4    2.12    0.76
   0   6   4    2.21    0.61
   0   6  -4    0.78    1.18
   0   6   4    0.64    1.34
   0   6  -4    2.07    0.60
   0   6  -4    1.11    0.58
   0   6  -4    1.08    1.06
  -1  -6  -4    1.43    0.63
   1   6   4    1.54    0.73
   1   6   4    0.95    0.59
  -1   6  -4    0.88    0.55
  -1   6  -4    1.65    0.79
  -1   6  -4    1.80    0.72
   1   6   4    1.81    1.14
  -1   6  -4    1.09    0.52
  -1   6  -4    1.85    0.64
  -2  -6  -4    0.76    0.64
  -2   6  -4    0.16    0.78
   2   6   4    0.41    0.67
   2   6   4    0.88    0.61
  -2   6  -4    1.66    0.80
  -2   6  -4    0.78    0.57
   2   6   4    1.29    1.23
  -2   6  -4    0.70    0.57
  -3  -6  -4   -0.40    0.58
   3   6   4   -0.19    0.61
  -3   6  -4   -0.63    0.57
   3   6   4   -0.20    0.65
  -3   6  -4   -0.37    0.65
  -3   6  -4   -0.15    0.66
  -3   6  -4   -0.03    0.78
   3   6   4    1.85    1.30
  -3   6  -4    0.68    0.48
  -4  -6  -4    1.62    0.95
  -4   6  -4    1.20    0.79
   4   6   4    0.16    0.71
  -4   6  -4    1.87    0.77
  -4   6  -4    1.09    0.54
  -4   6  -4    0.29    0.53
  -4   6  -4    0.27    0.96
   4   6   4    0.66    0.71
  -5  -6  -4   -0.97    1.04
   5   6   4   -0.11    0.78
  -5   6  -4   -0.08    0.65
  -5   6  -4   -0.18    0.98
  -5   6  -4   -0.48    0.77
  -5   6  -4    1.18    0.77
  -5   6  -4   -0.83    0.51
  -6  -6  -4    0.49    1.06
  -6   6  -4    0.16    0.55
  -6   6  -4    0.45    0.81
   6   6   4   -0.98    0.87
  -6   6  -4    1.06    1.00
  -6   6  -4   -1.09    0.96
  -6   6  -4    0.73    0.79
  -7  -6  -4   -0.21    1.10
  -7   6  -4    0.71    0.93
  -7   6  -4   -0.78    1.07
  -7   6  -4    0.82    0.88
   7   6   4    0.42    0.93
  -7   6  -4   -0.03    0.50
  -8   6  -4    0.39    1.08
  -8   6  -4    0.11    0.52
   8   6   4    1.35    1.64
  -9  -6  -4    0.35    1.23
  -9   6  -4   -0.79    1.02
   9   6   4   -0.92    1.11
  -9   6  -4    1.10    0.99
  -9   6  -4    0.23    0.61
 -10  -6  -4    3.97    1.58
 -10   6  -4    7.80    1.78
 -10   6  -4    6.65    1.72
  10   6   4    6.64    1.94
 -11  -6  -4   -0.05    0.87
  11   6   4   -2.36    1.46
 -11   6  -4   -0.24    0.93
 -11   6  -4    1.37    1.04
 -11  -7   4   -1.53    1.48
 -11   7   4    0.94    1.14
  11   7  -4    1.92    1.38
  11   7  -4    0.66    1.16
 -11   7   4   -0.07    1.14
 -10  -7   4    2.90    1.45
 -10   7   4    2.03    1.18
  10   7  -4   -0.28    1.36
  10   7  -4    0.65    1.12
   9  -7  -4    3.19    2.59
  -9  -7   4    0.00    1.46
   9   7  -4    0.78    1.18
   9   7  -4    2.35    1.21
  -9   7   4    0.52    1.00
   8  -7  -4    3.58    2.59
  -8  -7   4    2.61    1.53
   8   7  -4    5.72    1.40
  -8   7   4    2.67    1.47
   7  -7  -4    0.33    2.33
  -7  -7   4   -0.42    1.88
   7   7  -4    1.18    0.91
  -7   7   4    2.00    0.98
  -7   7   4    1.06    0.99
  -6  -7   4    2.68    3.37
   6   7  -4    0.04    0.77
  -6   7   4    1.09    0.84
  -6   7   4    1.35    0.89
   5  -7  -4    5.58    1.96
  -5  -7   4    8.73    2.59
   5   7  -4    5.23    1.38
  -5   7   4    4.60    1.43
   4  -7  -4    8.44    1.65
  -4   7   4    4.48    1.15
   4   7  -4    2.66    1.14
   3  -7  -4    1.64    1.26
  -3   7   4    0.33    0.57
   3   7  -4    0.27    0.69
   2  -7  -4    3.39    0.92
  -2   7   4    3.29    0.90
   2   7  -4    2.76    0.93
   2   7  -4    1.96    0.93
  -2   7   4    3.97    1.05
   1  -7  -4    3.24    0.93
  -1   7   4    2.78    1.22
   1   7  -4    3.30    0.84
   1   7  -4    3.44    0.87
  -1   7   4    3.24    1.03
  -1   7   4    2.89    0.91
   1   7  -4    2.41    0.99
   0  -7  -4    1.44    0.79
   0   7  -4    0.91    0.76
   0   7   4    0.97    0.81
   0   7   4    1.51    0.69
   0   7  -4    1.93    0.62
   0   7   4    1.36    1.13
   0   7  -4    1.88    0.59
   1   7   4   -0.24    0.58
   1   7   4   -1.87    1.22
  -1   7  -4    0.18    0.70
  -1   7  -4    0.44    0.55
  -1   7  -4    0.36    0.70
   1   7   4    0.98    0.73
  -1   7  -4    1.08    0.55
  -2  -7  -4    1.15    0.74
  -2   7  -4    0.29    1.12
  -2   7  -4    1.96    0.80
  -2   7  -4    2.31    0.66
  -2   7  -4    1.49    0.59
  -2   7  -4    1.35    0.82
   2   7   4    1.42    0.81
   2   7   4    3.11    1.34
  -3  -7  -4    7.51    1.64
   3   7   4    6.42    1.50
  -3   7  -4    5.23    1.45
   3   7   4    3.76    1.53
  -3   7  -4    6.02    1.65
  -3   7  -4    7.14    1.55
  -3   7  -4    7.18    1.48
  -3   7  -4    6.70    1.62
   3   7   4    5.37    2.32
  -4  -7  -4    1.75    1.11
  -4   7  -4    1.29    0.73
   4   7   4    1.68    0.78
  -4   7  -4    2.48    0.92
  -4   7  -4    4.59    1.05
   4   7   4    1.19    0.87
  -4   7  -4    1.15    0.67
  -4   7  -4    3.17    0.91
  -5  -7  -4    1.25    1.32
  -5   7  -4    1.55    0.79
  -5   7  -4    1.48    0.72
  -5   7  -4    3.08    1.03
  -5   7  -4    2.41    1.14
   5   7   4    2.18    0.95
   5   7   4    1.76    0.80
  -5   7  -4    2.59    0.97
  -6  -7  -4    0.97    1.26
   6   7   4    0.34    0.79
  -6   7  -4    0.82    0.99
  -6   7  -4    0.47    1.00
   6   7   4    0.69    0.87
  -6   7  -4    1.35    0.58
  -6   7  -4    1.66    1.05
  -6   7  -4    2.95    1.08
  -7  -7  -4    2.81    1.44
  -7   7  -4    5.73    1.22
   7   7   4    1.76    1.00
  -7   7  -4    3.00    1.45
  -7   7  -4    2.49    1.06
  -7   7  -4    0.65    0.68
  -8   7  -4    0.47    0.96
  -8   7  -4   -0.05    0.53
  -8   7  -4    1.12    0.99
   8   7   4    0.03    1.05
  -8   7  -4    1.85    1.21
  -9  -7  -4    0.84    1.49
  -9   7  -4    2.18    1.08
   9   7   4    2.95    1.20
  -9   7  -4    1.64    1.07
  -9   7  -4    0.57    0.92
 -10  -7  -4   -0.26    1.26
  10   7   4    2.05    1.25
 -10   7  -4    1.10    1.10
 -10   7  -4   -0.28    0.88
 -10  -8   4   -0.25    1.47
 -10   8   4   -1.28    1.04
 -10   8   4    0.28    0.84
  10   8  -4   -1.06    1.27
  -9  -8   4    0.46    1.64
   9   8  -4    1.37    1.28
  -9   8   4    3.14    1.06
  -8  -8   4   -4.85    1.45
   8   8  -4   -0.94    1.01
  -8   8   4   -0.17    1.02
   7  -8  -4   -2.00    3.03
  -7  -8   4    1.30    2.32
   7   8  -4    0.32    0.94
  -7   8   4    0.63    1.00
  -7   8   4    0.71    1.07
  -6  -8   4   -3.07    2.48
   6  -8  -4    2.28    2.36
  -6   8   4    0.37    0.85
   6   8  -4   -0.93    0.75
  -6   8   4   -0.02    0.84
  -5  -8   4    2.59    3.25
  -5   8   4    3.09    0.93
   5   8  -4    0.53    0.82
   4   8  -4   -0.84    0.79
  -4   8   4    0.45    0.71
   4   8  -4   -0.92    0.70
  -3   8   4    0.50    0.61
   3   8  -4   -0.09    0.71
   3   8  -4   -0.81    0.65
   2   8  -4    1.38    0.70
   2   8  -4    1.90    0.82
  -2   8   4    2.08    0.74
   1   8  -4    1.50    0.75
   1   8  -4    0.98    0.57
  -1   8   4    1.22    0.62
  -1   8   4    0.91    0.86
  -1   8   4    0.77    1.14
   0  -8  -4    1.63    0.78
   0   8  -4    2.37    0.65
   0   8   4    2.12    0.70
   0   8   4    1.52    0.90
   0   8   4    0.94    1.15
   0   8  -4    1.27    0.78
  -1  -8  -4    0.93    0.74
   1   8   4    0.56    0.64
  -1   8  -4    1.33    0.78
  -1   8  -4    1.57    0.60
   1   8   4    1.43    0.88
  -1   8  -4    1.96    0.93
   1   8   4    2.87    1.19
  -1   8  -4    2.68    0.69
  -2  -8  -4    6.04    1.30
   2   8   4    3.28    1.50
  -2   8  -4    4.51    1.20
  -2   8  -4    4.06    1.05
  -2   8  -4    2.23    1.10
   2   8   4    3.54    1.09
   2   8   4    2.75    1.24
  -2   8  -4    5.62    1.12
  -2   8  -4    6.72    1.26
  -3  -8  -4    0.34    1.01
   3   8   4   -0.23    0.82
  -3   8  -4    0.46    0.65
  -3   8  -4    0.60    0.94
  -3   8  -4    1.09    0.61
  -3   8  -4    1.56    0.89
  -3   8  -4   -0.91    0.72
   3   8   4   -0.92    1.35
   3   8   4    1.10    0.61
  -4  -8  -4    1.59    1.21
   4   8   4   -0.57    0.62
  -4   8  -4    0.59    0.55
  -4   8  -4    2.06    0.97
  -4   8  -4    0.45    0.91
   4   8   4    0.83    0.85
  -4   8  -4   -0.15    0.83
  -4   8  -4    0.44    0.61
  -5  -8  -4    2.79    1.51
  -5   8  -4    2.53    0.67
  -5   8  -4    1.75    0.96
  -5   8  -4    0.07    1.08
   5   8   4    1.52    0.74
  -5   8  -4    2.70    1.08
  -5   8  -4    1.04    0.80
  -6  -8  -4    1.85    1.54
  -6   8  -4    0.04    1.01
   6   8   4    0.55    0.74
  -6   8  -4    0.80    1.03
   6   8   4    1.29    0.86
  -6   8  -4    1.17    0.58
  -7  -8  -4    6.76    2.01
   7   8   4    3.04    1.12
  -7   8  -4    2.98    0.95
  -7   8  -4    3.65    1.23
  -7   8  -4    3.25    1.27
   7   8   4    0.83    0.99
  -7   8  -4    2.51    1.06
   8   8   4    3.66    1.83
   8   8   4    8.01    1.94
  -8   8  -4    8.22    1.96
  -8   8  -4    5.83    1.89
  -8   8  -4   11.56    2.04
  -9  -8  -4    0.67    1.65
  -9   8  -4   -0.06    1.06
  -9   8  -4   -0.24    0.92
   9   8   4   -3.17    1.00
   9   8   4   -0.46    1.05
  -9  -9   4    0.47    1.90
   9   9  -4   -1.58    1.23
  -9   9   4    0.83    1.06
  -9   9   4    0.04    0.87
  -8  -9   4   -1.18    1.87
   8   9  -4   -1.78    1.04
  -8   9   4    0.90    1.05
  -7  -9   4    7.33    3.25
   7   9  -4    1.63    1.03
  -7   9   4    2.18    1.07
  -7   9   4    1.45    1.19
  -6  -9   4    2.78    3.57
   6   9  -4    3.34    1.32
   6   9  -4    3.19    1.26
  -6   9   4    6.40    1.47
  -6   9   4    4.13    1.28
   5  -9  -4    1.02    1.48
   5   9  -4    1.96    0.94
   5   9  -4   -0.77    0.82
  -5   9   4   -0.28    0.89
   4  -9  -4    0.21    1.16
   4   9  -4   -0.69    0.83
   4   9  -4    0.49    0.79
  -4   9   4    0.40    0.74
   3  -9  -4    0.41    0.98
   3   9  -4    0.83    0.77
  -3   9   4    0.54    0.76
   3   9  -4    0.84    0.70
   2  -9  -4    1.17    0.91
   2   9  -4    1.50    0.70
   2   9  -4    1.36    0.80
  -2   9   4    0.54    0.62
   1  -9  -4    1.25    0.86
   1   9  -4    0.08    0.65
  -1   9   4    0.25    0.63
   1   9  -4    0.97    0.65
   0  -9  -4    2.89    1.10
   0   9   4    2.09    0.92
   0   9  -4    3.82    0.95
   0   9  -4    3.59    1.04
   0   9   4    2.79    1.31
  -1  -9  -4    2.64    0.90
  -1   9  -4    3.26    1.17
   1   9   4    2.97    0.97
  -1   9  -4    1.05    0.71
  -1   9  -4    1.82    0.91
   1   9   4    0.76    0.74
   1   9   4    1.50    1.16
  -2  -9  -4    0.10    0.77
  -2   9  -4    0.50    0.51
  -2   9  -4   -1.35    0.93
   2   9   4   -0.47    1.14
  -2   9  -4    0.72    0.87
   2   9   4   -0.04    0.62
  -3  -9  -4    0.10    1.17
  -3   9  -4    2.22    0.98
   3   9   4    0.97    0.81
  -3   9  -4   -1.76    1.07
  -3   9  -4   -0.05    0.64
  -3   9  -4    0.06    0.58
   3   9   4   -0.09    0.89
   4   9   4    0.06    0.88
  -4   9  -4   -0.02    1.03
   4   9   4    0.53    0.66
  -4   9  -4    0.27    0.87
  -5  -9  -4    0.72    1.62
  -5   9  -4    0.10    0.88
  -5   9  -4    1.06    0.71
  -5   9  -4    0.46    1.08
  -5   9  -4    0.49    0.92
   5   9   4    1.26    1.04
  -6  -9  -4    0.68    1.50
   6   9   4   -0.46    0.71
   6   9   4   -0.53    0.86
  -6   9  -4    1.48    1.14
  -6   9  -4   -0.24    0.92
  -6   9  -4    0.23    0.96
  -6   9  -4    0.48    0.74
  -7  -9  -4   -0.34    1.73
  -7   9  -4   -1.01    1.07
   7   9   4   -0.90    0.83
  -7   9  -4   -0.28    0.82
  -7   9  -4   -0.11    0.97
   7   9   4   -0.19    0.92
   8   9   4   -0.55    0.97
  -8   9  -4    1.12    0.91
  -8   9  -4    0.40    1.01
  -8   9  -4   -0.09    1.00
   8   9   4    1.56    0.99
  -8 -10   4    4.82    4.64
  -8  10   4   -0.01    1.01
   8  10  -4   -0.33    1.03
   8  10  -4   -1.45    0.95
  -8  10   4    0.18    1.21
  -7 -10   4    3.93    2.71
  -7  10   4    0.61    1.08
   7  10  -4   -2.50    0.94
  -7  10   4    0.31    0.99
   7  10  -4    0.49    0.95
  -7  10   4   -1.60    1.08
  -6  10   4    6.06    1.47
   6  10  -4    4.23    1.42
   6  10  -4    4.22    1.46
  -6  10   4    5.53    1.63
  -5  10   4    0.74    1.09
   5  10  -4    0.17    0.80
  -5  10   4    0.04    0.89
   5  10  -4   -0.47    0.77
   4 -10  -4    4.19    1.84
   4  10  -4    0.87    0.81
  -4  10   4    2.40    1.06
  -4  10   4    0.69    0.88
   4  10  -4    0.73    0.83
   3 -10  -4    0.23    1.39
   3  10  -4    0.43    0.68
   3  10  -4    1.26    0.77
  -3  10   4    0.67    0.76
   2 -10  -4    2.27    1.21
  -2  10   4    1.02    0.95
   2  10  -4    2.72    0.84
   2  10  -4    2.04    0.83
   1 -10  -4    2.19    1.02
   1  10  -4    0.73    0.75
  -1  10   4    0.78    0.97
   1  10  -4    0.04    0.66
   0 -10  -4   -1.50    0.95
   0  10  -4    0.20    0.64
   0  10  -4    0.45    0.80
   0  10   4    0.65    0.81
  -1 -10  -4    0.47    1.03
  -1  10  -4    1.18    0.65
  -1  10  -4    1.38    0.86
   1  10   4   -0.01    0.83
  -2  10  -4    0.14    0.58
  -2  10  -4   -0.14    0.99
  -2  10  -4    1.38    1.34
   2  10   4   -0.02    0.84
  -3 -10  -4    0.08    1.50
  -3  10  -4    2.89    1.08
   3  10   4    1.59    0.74
  -3  10  -4    0.96    0.71
  -4 -10  -4    2.66    1.79
  -4  10  -4    0.96    1.47
   4  10   4    0.21    0.72
  -4  10  -4    1.34    0.81
  -4  10  -4    2.80    1.20
   4  10   4    2.40    1.09
  -4  10  -4    3.53    1.46
  -5 -10  -4    2.96    1.65
  -5  10  -4    3.09    1.10
  -5  10  -4    1.48    0.90
  -5  10  -4    4.47    1.25
  -5  10  -4   -0.32    0.88
   5  10   4    1.71    0.80
   5  10   4    3.40    1.11
  -6 -10  -4    5.24    1.71
  -6  10  -4   -1.41    0.94
   6  10   4    1.26    0.80
  -6  10  -4    0.71    0.77
   6  10   4    1.15    1.03
  -6  10  -4    0.59    1.13
  -6  10  -4    0.58    0.94
   7  10   4    0.17    0.99
  -7  10  -4   -1.19    0.96
   7  10   4    0.90    0.90
  -7  10  -4   -1.55    1.02
  -7  10  -4   -0.03    0.80
   6  11  -4   -0.43    0.82
  -6  11   4   -1.47    1.66
   6  11  -4   -0.56    0.79
  -6  11   4    0.84    0.94
  -6  11   4   -0.23    1.10
  -5  11   4   -3.72    1.71
  -5  11   4    0.13    0.86
   5  11  -4    0.32    0.79
  -5  11   4    0.35    1.15
   5  11  -4    0.61    0.76
  -4  11   4    1.69    2.65
   4  11  -4   -0.56    0.80
   4  11  -4    1.59    0.82
  -4  11   4    0.77    1.17
  -4  11   4    1.86    0.85
  -3  11   4    2.01    0.92
   3  11  -4    1.79    0.87
  -3  11   4    2.03    1.16
   3  11  -4    2.45    0.90
   2  11  -4    0.26    0.65
  -2  11   4    0.12    0.67
   2  11  -4    0.17    0.73
   1  11  -4    0.56    0.70
  -1  11   4    0.36    0.63
   1  11  -4    0.48    0.79
   0 -11  -4    2.76    1.63
   0  11   4    0.56    0.70
   0  11  -4   -0.05    0.64
   0  11  -4   -0.16    0.88
  -1 -11  -4    2.88    1.56
  -1  11  -4    2.11    1.00
  -1  11  -4    0.89    0.69
   1  11   4    0.93    0.69
  -2 -11  -4    2.40    1.62
  -2  11  -4   -0.24    0.65
  -2  11  -4    1.15    0.94
   2  11   4    0.91    0.65
  -3 -11  -4   -2.36    1.62
  -3  11  -4    0.58    1.03
  -3  11  -4   -0.09    0.59
  -3  11  -4    0.66    1.50
   3  11   4    0.93    0.66
  -4 -11  -4    2.61    1.71
  -4  11  -4    2.58    1.32
  -4  11  -4   -0.25    0.70
  -4  11  -4    0.61    0.92
   4  11   4    0.02    0.73
  -5 -11  -4   -1.61    1.86
  -5  11  -4   -0.30    0.93
   5  11   4    0.76    0.79
  -5  11  -4   -0.01    0.84
  -5  11  -4    1.24    1.20
   3  12  -4    1.08    0.85
   2  12  -4    0.87    0.74
   2  12  -4    1.07    0.86
  -2  12   4    0.62    0.76
  -2  12   4   -0.58    1.03
   1  12  -4    0.01    0.70
  -1  12   4   -0.27    0.66
   1  12  -4    1.31    0.93
   0 -12  -4    4.84    2.57
   0  12   4   -1.16    0.59
   0  12  -4    0.95    0.92
   0  12  -4    0.83    0.68
  -1 -12  -4   -0.18    2.37
  -1  12  -4    1.55    0.98
  -1  12  -4    1.00    0.71
   1  12   4   -0.42    0.69
  -2  12  -4    0.19    0.72
   2  12   4   -0.74    0.69
  -2  12  -4    1.15    1.02
 -13   0   5    1.14    1.22
  13   0  -5    0.56    1.32
 -13   0   5    0.11    0.44
 -12   0   5    0.54    0.37
  12   0  -5   -0.40    1.19
  11   0  -5   -0.05    1.23
 -11   0   5   -0.01    0.30
 -10   0   5   -0.03    0.88
  10   0  -5    0.23    0.94
  -9   0   5    0.32    1.58
  -9   0   5    0.02    0.73
   9   0  -5   -0.30    0.84
  -8   0   5   -0.26    0.72
   8   0  -5    0.28    0.82
  -8   0   5    0.58    1.31
  -7   0   5    0.92    0.79
  -7   0   5   -2.99    1.20
   7   0  -5    0.34    0.80
  -6   0   5    2.20    1.37
   6   0  -5    0.53    0.76
  -6   0   5   -0.22    0.85
  -5   0   5   -0.46    0.90
   5   0  -5    0.17    0.74
   4   0  -5    0.12    0.61
  -4   0   5   -0.05    0.98
   4   0  -5    0.08    0.40
  -3   0   5   -0.67    1.03
   3   0  -5    0.26    0.50
   3   0  -5    0.23    0.49
  -2   0   5   -0.85    1.15
   2   0  -5    0.76    0.58
   2   0  -5   -0.62    0.46
   1   0  -5   -0.14    0.47
   1   0  -5    0.24    0.60
  -1   0   5    0.48    0.39
   0   0  -5   -2.59    1.32
   0   0  -5    0.18    0.44
   0   0   5   -0.51    0.40
   1   0   5   -1.01    0.69
  -1   0  -5   -0.18    0.33
  -1   0  -5   -0.08    0.34
  -2   0  -5   -0.04    0.40
  -4   0  -5    0.71    0.74
  -4   0  -5    1.13    0.47
  -4   0  -5   -0.65    0.65
   4   0   5    1.29    1.65
   5   0   5    3.42    1.64
  -5   0  -5    0.55    0.83
  -5   0  -5   -0.33    0.74
  -5   0  -5    0.05    0.56
  -6   0  -5    0.68    0.82
   6   0   5   -1.11    1.61
  -6   0  -5   -0.48    0.57
  -6   0  -5    0.17    0.77
  -7   0  -5   -0.73    0.86
   7   0   5   -3.91    1.99
  -7   0  -5    0.88    0.59
  -7   0  -5   -0.26    0.88
  -8   0  -5    0.45    0.62
  -8   0  -5    0.70    1.02
  -8   0  -5    0.21    0.84
  -9   0  -5    0.09    0.95
  -9   0  -5   -0.17    0.57
 -10   0  -5    0.73    0.93
 -10   0  -5   -0.13    0.57
 -11   0  -5    1.72    0.94
 -11   0  -5   -0.29    0.63
 -12   0  -5   -0.22    0.82
 -12   0  -5   -0.45    0.81
 -13  -1   5    0.67    0.46
  13  -1  -5    0.40    1.46
 -13  -1   5    2.69    1.39
 -13   1   5    2.67    1.32
  13   1  -5    1.98    1.31
 -13   1   5    2.02    0.91
 -12  -1   5   -0.22    1.04
 -12  -1   5   -1.32    1.09
  12  -1  -5    2.11    1.23
 -12   1   5   -3.93    1.95
 -12   1   5   -0.01    0.43
  12   1  -5   -0.05    1.08
  11  -1  -5    0.60    1.63
 -11  -1   5    0.56    0.90
  11   1  -5   -0.38    0.97
 -11   1   5    0.02    0.38
 -11   1   5   -1.53    1.32
  10  -1  -5    0.70    0.99
 -10  -1   5   -0.03    0.84
  10   1  -5    0.45    0.86
 -10   1   5    0.03    0.29
 -10   1   5    2.60    1.13
  -9  -1   5    0.29    0.79
   9  -1  -5    1.01    0.94
  -9   1   5    0.28    0.29
   9   1  -5    0.34    0.88
  -9   1   5    1.79    1.26
  -8  -1   5    3.02    0.94
   8  -1  -5    3.02    1.08
  -8   1   5    1.83    1.29
   8   1  -5    1.73    0.98
   7  -1  -5   -0.29    0.94
  -7  -1   5    2.17    0.96
  -7   1   5    1.43    0.98
   7   1  -5    1.59    0.82
  -7   1   5    1.42    0.88
  -6  -1   5    3.68    1.23
  -6   1   5    5.52    1.29
  -6   1   5    2.01    1.24
   6   1  -5    4.13    1.57
   5  -1  -5    1.02    0.77
  -5  -1   5    2.10    0.97
   5   1  -5    1.42    0.83
  -5   1   5    1.79    1.06
   4  -1  -5   -0.11    0.63
   4  -1  -5    0.18    0.39
  -4  -1   5    0.56    0.97
  -4   1   5   -0.06    0.38
   4   1  -5    0.91    0.49
   4   1  -5    0.70    0.61
   3  -1  -5    6.45    1.63
   3  -1  -5    6.53    1.59
   3   1  -5    8.27    1.68
   2  -1  -5    7.75    2.08
  -2  -1   5   14.46    2.36
   2  -1  -5    8.60    2.12
   2   1  -5    8.77    2.10
   2   1  -5    9.97    2.10
  -1  -1   5    0.49    1.11
   1  -1  -5    0.73    0.67
   1   1  -5   -0.21    0.43
  -1   1   5    0.61    0.48
   0  -1   5    1.85    0.74
   0  -1  -5    2.48    0.69
   0  -1  -5    2.70    0.69
   0   1  -5    4.30    0.79
   0   1  -5    2.78    0.72
   0   1   5    3.33    0.92
  -1  -1  -5    7.72    1.52
  -1  -1  -5    5.29    1.50
   1   1   5    4.80    1.61
  -1   1  -5    8.53    1.52
  -1   1  -5    6.99    1.55
  -2  -1  -5    4.55    1.15
  -2  -1  -5    5.16    1.17
  -2  -1  -5    4.47    1.11
   2   1   5    5.18    1.37
  -2   1  -5    5.31    1.38
  -2   1  -5    4.64    1.19
  -3  -1  -5    2.47    0.67
  -3  -1  -5    1.06    0.59
   3   1   5    3.56    1.14
  -3   1  -5    2.27    0.90
  -4  -1  -5   13.11    3.28
  -4   1  -5   14.97    3.27
   4   1   5   13.71    3.44
  -4   1  -5   16.79    3.32
  -5  -1  -5   26.78    6.04
  -5   1  -5   23.75    5.94
  -5   1  -5   31.74    5.97
  -5   1  -5   26.49    5.93
  -6  -1  -5    1.08    0.79
  -6   1  -5    2.87    0.96
  -6   1  -5    1.51    0.73
   6   1   5    3.20    1.46
  -6   1  -5    1.02    0.82
  -7  -1  -5    1.83    0.99
  -7   1  -5    3.41    1.07
  -7   1  -5    3.26    1.01
   7   1   5   -1.29    1.63
  -7   1  -5    2.99    0.89
  -8  -1  -5   -0.08    0.84
  -8   1  -5    0.62    1.00
  -8   1  -5    0.49    0.75
  -8   1  -5    0.41    0.66
   8   1   5    0.32    1.93
  -9  -1  -5    0.83    0.88
  -9   1  -5    0.50    0.62
  -9   1  -5    0.45    0.85
  -9   1  -5    0.88    1.01
 -10  -1  -5    0.44    0.91
 -10  -1  -5   -0.23    0.62
  10   1   5   -2.28    2.75
 -10   1  -5    0.20    1.05
 -10   1  -5   -0.16    0.87
 -10   1  -5    0.35    0.64
 -11  -1  -5    0.48    0.98
 -11  -1  -5   -0.47    0.59
 -11   1  -5   -0.17    0.56
 -11   1  -5    0.11    0.84
 -12  -1  -5    0.85    0.72
 -12  -1  -5    0.31    0.78
 -12   1  -5    0.66    0.86
 -12   1  -5    1.09    0.57
  13  -2  -5   -0.23    1.41
 -13  -2   5    0.06    1.15
 -13  -2   5    1.53    1.66
  13   2  -5    0.88    1.19
 -13   2   5   -1.81    1.12
 -13   2   5    2.15    1.62
 -12  -2   5    5.16    1.42
 -12  -2   5    0.16    1.03
  12  -2  -5   -1.21    1.39
  12   2  -5    1.23    1.09
 -12   2   5    4.35    1.43
 -12   2   5    1.16    0.84
  11  -2  -5    2.10    1.70
 -11  -2   5    0.92    1.12
 -11   2   5    0.41    0.91
  11   2  -5    1.29    0.98
 -11   2   5    0.56    1.20
  10  -2  -5    3.84    1.21
 -10  -2   5    3.02    1.09
  10   2  -5    2.61    1.12
 -10   2   5    1.11    1.21
   9  -2  -5    2.18    1.13
  -9  -2   5    3.20    0.98
  -9   2   5    0.99    0.51
  -9   2   5    1.99    1.09
   9   2  -5    3.00    0.99
  -8  -2   5   -0.66    0.84
   8  -2  -5    1.18    1.06
  -8   2   5   -0.04    0.31
   8   2  -5    0.81    0.87
  -8   2   5    0.39    1.03
  -7  -2   5    2.09    1.30
   7  -2  -5    3.19    1.89
   7   2  -5    1.72    0.79
  -7   2   5    1.40    0.96
  -7   2   5    0.40    0.34
   6  -2  -5    2.75    0.92
  -6  -2   5    5.58    1.08
   6   2  -5    2.19    0.81
  -6   2   5    0.86    0.48
  -5  -2   5    0.41    0.95
   5  -2  -5    1.89    0.77
  -5   2   5    0.32    0.43
   5   2  -5    0.48    0.70
   4  -2  -5   36.92    8.46
  -4  -2   5   45.11    8.51
   4   2  -5   38.48    8.44
   4   2  -5   35.90    8.43
  -3  -2   5   10.16    1.96
   3  -2  -5    7.55    1.67
   3   2  -5    5.31    1.59
   3   2  -5    7.87    1.63
   2  -2  -5   70.51   14.97
  -2  -2   5   64.08   15.03
   2  -2  -5   67.94   14.98
  -2   2   5   71.12   15.00
   2   2  -5   67.82   14.96
   1  -2  -5    0.54    0.58
  -1  -2   5    1.94    1.34
   1  -2  -5    1.65    0.79
   1   2  -5    0.69    0.47
  -1   2   5    0.27    0.77
   0  -2  -5   13.83    2.64
   0  -2  -5   11.45    2.62
   0   2   5    9.07    2.68
   0   2  -5   11.99    2.63
   0   2  -5   12.31    2.64
  -1  -2  -5   -0.02    0.33
  -1  -2  -5    0.16    0.42
  -1   2  -5   -0.43    0.41
  -1   2  -5   -0.32    0.62
  -1   2  -5   -1.99    0.93
   1   2   5   -0.05    0.72
  -2  -2  -5    3.59    0.83
  -2  -2  -5    3.09    0.80
  -2  -2  -5    2.36    0.77
  -2   2  -5    3.86    0.94
  -2   2  -5    2.31    1.05
   2   2   5    3.64    1.04
  -2   2  -5    3.54    0.99
  -3  -2  -5    2.67    0.63
  -3  -2  -5    1.55    0.48
  -3   2  -5   -0.06    0.40
   3   2   5    3.05    0.86
  -3   2  -5   -0.90    0.71
  -4  -2  -5    1.26    0.50
   4   2   5    0.07    0.97
  -4   2  -5    0.54    0.43
  -4   2  -5    1.94    0.79
  -4   2  -5    0.97    0.70
  -5  -2  -5    1.94    0.71
   5   2   5    1.77    1.21
  -5   2  -5    3.08    0.95
  -5   2  -5    2.59    0.80
  -5   2  -5    1.06    0.66
  -6  -2  -5    1.18    0.73
  -6  -2  -5   -0.86    0.70
   6   2   5    0.56    1.36
  -6   2  -5    2.19    0.63
  -6   2  -5    2.08    0.76
  -6   2  -5    4.49    0.98
  -7  -2  -5    2.98    1.04
  -7   2  -5    3.37    1.02
  -7   2  -5    5.14    1.28
   7   2   5    6.54    1.75
  -7   2  -5    3.60    1.09
  -8  -2  -5    1.65    0.92
  -8   2  -5    2.87    1.15
  -8   2  -5    3.84    1.06
  -8   2  -5    1.84    0.84
  -9  -2  -5   -0.77    0.78
  -9   2  -5    1.52    1.06
   9   2   5    0.15    1.87
  -9   2  -5    1.10    0.88
  -9   2  -5    1.04    0.65
 -10  -2  -5    0.67    0.90
  10   2   5    2.26    2.23
 -10   2  -5    0.79    0.66
 -10   2  -5    2.97    1.11
 -10   2  -5    2.38    0.99
 -11  -2  -5   -0.67    0.75
 -11  -2  -5    0.75    0.63
  11   2   5    7.29    2.67
 -11   2  -5    0.31    0.54
 -11   2  -5   -0.11    0.88
 -11   2  -5   -0.49    1.01
 -12  -2  -5    0.08    0.65
 -12  -2  -5    0.84    0.62
 -12   2  -5   -0.27    0.54
 -12   2  -5    0.58    0.91
  12   2   5    8.88    4.58
  13  -3  -5   -3.59    1.64
 -13  -3   5    0.72    1.11
 -13   3   5    2.33    1.15
  13   3  -5    2.61    1.19
 -13   3   5    1.17    1.46
 -12  -3   5    1.03    1.09
 -12  -3   5   -2.09    1.97
  12  -3  -5    0.93    1.41
  12   3  -5    1.45    1.07
 -12   3   5    2.76    1.34
 -11  -3   5    1.82    1.74
  11  -3  -5    0.26    1.25
 -11  -3   5    0.07    1.59
 -11   3   5    2.13    1.44
 -10  -3   5    1.37    1.52
  10  -3  -5   -0.24    1.11
  10   3  -5    0.39    1.48
 -10   3   5    0.10    0.77
  -9  -3   5    0.46    0.93
   9  -3  -5    1.85    1.12
   9   3  -5    0.99    0.97
  -9   3   5   -0.06    0.90
  -9   3   5    0.18    0.69
   8  -3  -5    3.11    1.09
  -8  -3   5    2.65    1.11
   8   3  -5    1.81    1.02
  -8   3   5    0.83    1.07
  -8   3   5    0.97    0.76
  -7  -3   5    0.48    1.67
  -7   3   5    1.10    0.71
  -7   3   5    1.77    0.98
   7   3  -5    0.60    0.85
   6  -3  -5   18.49    3.91
  -6  -3   5   21.41    3.95
   6   3  -5   18.03    3.84
  -6   3   5   13.03    3.82
  -5  -3   5   52.74   11.95
   5  -3  -5   53.96   11.92
  -5   3   5   63.41   12.01
   5   3  -5   51.11   11.90
  -4  -3   5    0.77    1.18
   4  -3  -5    0.58    0.63
  -4   3   5    0.52    0.99
   4   3  -5    0.74    0.55
   4   3  -5    0.91    0.66
  -3  -3   5    1.77    1.18
   3  -3  -5    3.19    0.88
   3   3  -5    2.84    0.80
  -3   3   5    1.43    1.13
   2  -3  -5    0.76    0.75
  -2  -3   5    0.19    2.09
  -2   3   5    0.48    0.94
   1  -3  -5    7.08    1.80
  -1   3   5   10.08    1.95
   0  -3  -5    8.18    2.20
   0  -3  -5   10.62    2.20
   0   3  -5   11.46    2.19
   0   3  -5    7.08    2.28
   0   3   5   11.01    2.31
   0   3  -5    9.87    2.20
  -1  -3  -5    1.96    0.68
  -1  -3  -5    3.84    0.75
  -1   3  -5    2.17    0.93
  -1   3  -5    2.92    0.76
  -1   3  -5    1.26    0.89
  -1   3  -5    2.31    0.74
   1   3   5    3.00    0.92
  -2  -3  -5    1.27    0.47
  -2   3  -5    1.53    0.79
  -2   3  -5   -0.27    0.51
  -2   3  -5    3.03    0.62
   2   3   5    0.85    0.77
  -2   3  -5    2.04    0.78
  -3  -3  -5   17.34    3.10
   3   3   5   12.51    3.15
  -3   3  -5   12.15    3.14
  -3   3  -5   12.62    3.07
  -3   3  -5   13.58    3.12
  -4  -3  -5   50.58    9.92
  -4  -3  -5   42.66    9.91
  -4   3  -5   39.64    9.92
  -4   3  -5   42.71    9.94
  -4   3  -5   43.67    9.94
  -4   3  -5   45.79    9.97
   4   3   5   51.97    9.95
  -5  -3  -5    0.27    0.53
  -5  -3  -5    0.32    0.74
  -5   3  -5   -1.06    1.36
   5   3   5    0.68    1.03
  -5   3  -5    1.25    0.46
  -5   3  -5    1.43    0.72
  -5   3  -5    2.08    0.90
  -6  -3  -5   -0.58    0.44
  -6   3  -5    0.32    0.48
   6   3   5   -1.49    1.27
  -6   3  -5   -1.00    0.88
  -6   3  -5    0.00    0.62
  -7  -3  -5    0.72    0.58
  -7   3  -5    1.11    0.75
  -7   3  -5    1.75    0.97
  -7   3  -5    1.47    0.62
   7   3   5    1.81    1.58
   8   3   5   16.12    3.36
  -8   3  -5   12.40    2.98
  -8   3  -5   12.06    3.05
  -9  -3  -5   -0.42    0.52
  -9   3  -5    1.91    1.37
  -9   3  -5   -0.43    1.15
   9   3   5    1.71    1.81
  -9   3  -5    0.30    0.59
 -10   3  -5   10.95    2.53
 -10   3  -5    8.69    2.51
  10   3   5   14.51    3.19
 -11  -3  -5   -0.62    0.68
 -11   3  -5   -0.30    1.00
 -11   3  -5    0.10    0.82
 -11   3  -5    0.66    0.84
  11   3   5    4.92    2.52
 -12  -4   5    1.47    1.12
  12  -4  -5    2.72    1.58
  12   4  -5    0.37    1.16
 -12   4   5    1.55    1.33
 -11  -4   5    0.95    1.14
  11  -4  -5    3.23    1.59
  11   4  -5   -0.13    1.04
 -11   4   5   -1.12    1.15
  10  -4  -5   -0.40    1.33
 -10  -4   5    0.37    1.26
  10   4  -5   -0.18    0.97
 -10   4   5   -1.05    1.24
  -9  -4   5   -0.81    1.13
   9  -4  -5   -0.51    1.17
  -9   4   5   -1.35    1.05
   9   4  -5    1.73    1.05
  -9   4   5    1.62    0.77
  -8  -4   5    5.02    1.48
   8  -4  -5    3.10    1.42
  -8   4   5    2.90    1.32
   8   4  -5    5.97    1.32
  -8   4   5    2.52    1.08
  -7  -4   5    3.23    1.23
   7  -4  -5    0.42    1.03
  -7   4   5   -0.06    0.73
  -7   4   5   -0.37    0.80
   7   4  -5    0.49    0.85
  -6  -4   5    3.02    1.18
   6   4  -5    1.63    0.83
  -6   4   5    0.77    0.84
  -5  -4   5    7.29    1.73
   5  -4  -5    6.04    1.49
  -5   4   5    4.82    1.55
  -4  -4   5    4.38    2.17
   4  -4  -5    4.68    1.21
  -4   4   5    4.07    1.26
  -4   4   5    4.41    1.39
  -3  -4   5    3.85    1.28
   3  -4  -5    2.12    0.81
   3   4  -5    1.43    0.62
  -3   4   5    2.22    1.08
  -3   4   5    0.90    0.82
  -2  -4   5   20.41    4.76
  -2   4   5   20.41    4.53
   1  -4  -5    2.16    0.60
  -1   4   5    0.45    0.78
  -1   4   5    2.33    0.96
   1   4  -5    1.07    0.97
   1   4  -5    1.37    0.57
   1   4  -5    2.33    0.69
   0  -4  -5    2.33    0.80
   0  -4  -5    2.72    0.81
   0   4  -5    0.35    1.05
   0   4   5    3.71    1.03
   0   4  -5    3.14    0.78
   0   4  -5    3.56    0.78
  -1  -4  -5    0.14    0.45
  -1   4  -5    2.12    1.10
  -1   4  -5    0.36    0.41
   1   4   5    0.13    0.73
  -1   4  -5    0.93    0.49
  -1   4  -5    0.20    0.48
  -1   4  -5    0.86    0.73
  -2  -4  -5    1.36    0.60
  -2   4  -5    1.34    0.79
  -2   4  -5    2.76    0.64
  -2   4  -5    1.55    0.83
  -2   4  -5    1.26    0.78
  -2   4  -5    1.59    0.61
   2   4   5    1.47    0.80
  -3  -4  -5    2.23    0.67
  -3   4  -5    3.34    0.72
  -3   4  -5    2.86    0.98
  -3   4  -5    1.32    0.83
   3   4   5    3.76    0.89
  -3   4  -5   -1.05    0.86
  -3   4  -5    1.98    0.69
  -4  -4  -5    3.73    1.17
  -4   4  -5    3.34    1.35
  -4   4  -5    5.26    1.13
  -4   4  -5    3.83    1.16
  -4   4  -5    4.36    1.26
   4   4   5    4.89    1.55
  -5  -4  -5    3.96    1.54
  -5   4  -5    5.92    1.45
  -5   4  -5    7.97    1.86
  -5   4  -5    6.33    1.52
  -5   4  -5    7.19    1.58
  -5   4  -5    5.83    1.49
  -6  -4  -5    0.43    0.51
  -6  -4  -5    0.61    0.80
  -6   4  -5    0.54    0.71
   6   4   5    0.74    1.10
  -6   4  -5    0.59    0.58
  -6   4  -5    0.73    0.87
  -7  -4  -5    0.40    0.49
  -7   4  -5    0.08    0.66
   7   4   5   -0.98    1.27
  -7   4  -5    0.00    0.84
  -7   4  -5    0.88    0.97
  -8  -4  -5   -0.35    0.56
  -8  -4  -5    0.03    1.17
  -8   4  -5    0.43    0.85
  -8   4  -5    0.08    0.94
  -8   4  -5    0.93    0.88
   8   4   5    0.10    1.45
  -9  -4  -5    0.41    0.67
  -9   4  -5    1.12    0.97
  -9   4  -5   -0.69    0.80
  -9   4  -5    1.27    0.91
 -10  -4  -5    0.74    0.76
 -10   4  -5    2.00    0.94
  10   4   5    2.41    1.95
 -10   4  -5    1.01    1.02
 -10   4  -5    0.82    0.83
 -11   4  -5    0.57    0.97
 -11   4  -5   -0.20    0.84
 -11   4  -5    0.94    0.98
 -12  -5   5   -1.22    1.24
  12  -5  -5    0.51    2.11
  12   5  -5   -0.73    1.14
  12   5  -5    0.89    1.42
 -12   5   5   -2.24    1.26
 -11  -5   5    3.68    1.64
  11  -5  -5    3.34    1.96
  11   5  -5    3.73    1.87
  11   5  -5    5.89    1.63
 -11   5   5    6.58    1.70
 -10  -5   5   -0.26    1.41
 -10   5   5    0.25    1.25
  10   5  -5    0.86    1.39
  -9  -5   5   -0.30    1.25
   9  -5  -5   -0.42    1.49
   9   5  -5    0.67    1.06
  -9   5   5    1.58    1.13
  -8  -5   5    1.65    1.27
   8  -5  -5    1.01    1.26
  -8   5   5    0.98    0.88
  -8   5   5   -0.13    1.02
   8   5  -5    0.09    0.95
   7  -5  -5    0.30    0.90
  -7  -5   5   -0.11    1.23
   7   5  -5   -0.12    0.80
  -7   5   5   -0.23    0.80
  -7   5   5    0.09    0.79
   6  -5  -5    0.34    1.26
  -6  -5   5    0.30    1.28
  -6   5   5    0.81    0.82
  -5  -5   5    1.54    1.27
   5  -5  -5    1.50    0.94
  -5   5   5    3.19    0.97
  -5   5   5    1.52    1.03
   4  -5  -5    4.00    1.09
  -4  -5   5    4.29    1.77
  -4   5   5    3.99    1.27
  -4   5   5    1.82    1.11
  -3  -5   5   11.80    4.08
   3  -5  -5   18.71    3.53
   3   5  -5   13.76    3.43
  -3   5   5   13.02    3.47
   3   5  -5   15.31    3.51
  -3   5   5   19.72    3.60
   2  -5  -5    5.70    1.18
   2   5  -5    2.45    0.81
  -2   5   5    2.29    0.94
  -2   5   5    2.85    1.16
   2   5  -5    2.80    1.07
   1  -5  -5   20.79    4.95
   1   5  -5   24.83    4.99
  -1   5   5   23.15    5.17
   1   5  -5   22.58    4.94
   1   5  -5   21.97    4.95
   0  -5  -5    1.27    0.59
   0  -5  -5    1.28    0.63
   0   5   5    0.92    1.57
   0   5   5    0.24    0.63
   0   5  -5    1.95    0.79
   0   5  -5    1.20    0.58
   0   5  -5    1.96    0.52
  -1  -5  -5    3.90    1.00
   1   5   5    3.27    1.73
  -1   5  -5    2.57    1.11
   1   5   5    3.41    1.01
  -1   5  -5    4.92    1.09
  -2  -5  -5   13.35    3.06
  -2   5  -5   17.19    3.07
  -2   5  -5   13.77    3.04
   2   5   5   13.10    3.21
  -2   5  -5   10.76    3.07
  -3  -5  -5   11.51    2.60
  -3   5  -5    9.58    2.60
   3   5   5   13.87    2.65
  -3   5  -5   13.44    2.60
  -3   5  -5   10.81    2.65
  -3   5  -5    9.96    2.61
  -4  -5  -5   -0.37    0.75
  -4   5  -5   -0.54    0.57
  -4   5  -5    1.22    0.67
  -4   5  -5   -1.12    0.87
   4   5   5   -0.59    0.76
  -4   5  -5   -0.68    0.70
  -4   5  -5    1.28    0.60
   4   5   5    0.60    0.81
  -5  -5  -5    0.00    0.90
  -5   5  -5    0.63    0.71
  -5   5  -5    0.33    0.75
  -5   5  -5    3.00    1.17
  -5   5  -5    0.93    0.83
  -5   5  -5    0.75    0.60
   5   5   5    1.38    0.89
  -6  -5  -5    9.84    2.70
  -6   5  -5   10.31    2.77
  -6   5  -5   14.11    2.72
  -6   5  -5   11.61    2.66
  -6   5  -5   10.40    2.65
   6   5   5   12.75    2.77
  -7   5  -5    0.80    0.94
  -7   5  -5    2.15    0.86
  -7   5  -5    3.40    1.11
   7   5   5    1.45    1.29
  -8   5  -5   -0.72    1.41
  -8   5  -5   -0.30    1.64
   8   5   5   -1.37    1.21
  -8   5  -5    0.09    0.77
  -9  -5  -5    0.56    1.19
  -9   5  -5    1.21    0.92
   9   5   5   -1.21    1.95
  -9   5  -5    1.54    0.99
  -9   5  -5    0.50    0.96
  10   5   5    3.30    1.70
 -10   5  -5    1.26    1.01
 -10   5  -5    0.70    1.06
 -10   5  -5    0.61    0.76
 -11   5  -5    1.42    1.06
 -11   5  -5    1.92    1.01
 -11   5  -5    1.11    0.89
  11   5   5    3.54    2.27
 -11  -6   5   -0.85    1.42
 -11   6   5    1.57    1.25
  11   6  -5   -0.12    1.51
  11   6  -5    2.37    1.17
  10  -6  -5    0.14    1.84
 -10  -6   5    1.56    1.46
 -10   6   5    0.49    1.22
  10   6  -5    2.20    1.48
  10   6  -5    1.08    1.15
   9  -6  -5   -1.65    1.42
  -9  -6   5    3.43    2.04
   9   6  -5    0.31    1.19
   9   6  -5    0.85    1.28
  -9   6   5   -0.59    1.02
   8  -6  -5   -0.97    1.27
  -8  -6   5    0.89    1.26
  -8   6   5   -0.27    0.96
   8   6  -5    0.01    1.08
   7  -6  -5   -0.60    1.27
  -7  -6   5    3.23    1.46
   7   6  -5    1.27    1.10
  -7   6   5   -0.71    1.15
   6  -6  -5    0.84    1.07
  -6  -6   5   -4.03    2.60
  -6   6   5   -0.42    0.92
  -6   6   5    0.06    0.88
   6   6  -5   -0.78    0.83
  -5  -6   5   -0.15    1.45
  -5   6   5    0.91    0.98
  -5   6   5    1.54    0.82
   5   6  -5    0.51    0.86
  -4  -6   5    6.97    5.56
  -4   6   5   -0.23    0.77
   4   6  -5    1.04    0.75
  -4   6   5   -0.13    0.97
   3   6  -5    3.79    1.07
  -3   6   5    2.96    1.23
  -3   6   5    3.51    1.04
  -2   6   5    1.76    0.92
   2   6  -5    1.36    0.51
   2   6  -5    1.01    0.79
   2   6  -5    1.44    0.68
  -2   6   5    0.72    0.65
  -1   6   5    4.44    1.32
  -1   6   5    3.49    1.16
   1   6  -5    4.70    1.09
   1   6  -5    4.92    1.13
   1   6  -5    4.86    1.27
   0  -6  -5    1.21    0.70
   0   6   5    1.20    0.78
   0   6  -5    0.66    0.74
   0   6  -5    0.23    0.46
   0   6  -5    0.83    0.60
   0   6   5    1.03    0.57
  -1  -6  -5    4.02    1.35
   1   6   5    5.45    1.42
  -1   6  -5    5.73    1.33
  -1   6  -5    5.82    1.50
  -1   6  -5    8.03    1.46
  -2  -6  -5    0.63    0.59
  -2   6  -5    0.76    0.60
  -2   6  -5    0.21    0.45
   2   6   5    0.79    0.64
  -2   6  -5   -0.63    0.68
  -2   6  -5   -0.10    0.51
   2   6   5    0.36    0.70
  -2   6  -5    0.54    0.63
  -3  -6  -5    0.88    0.65
   3   6   5   -0.49    0.72
  -3   6  -5    0.83    0.79
  -3   6  -5    0.77    0.59
  -3   6  -5    0.96    0.73
   3   6   5    0.71    0.74
  -3   6  -5    2.07    0.77
  -3   6  -5    0.84    0.60
  -4  -6  -5    1.45    0.93
  -4   6  -5    0.84    0.78
  -4   6  -5    0.75    0.77
  -4   6  -5    0.46    0.59
  -4   6  -5    0.16    0.94
  -4   6  -5    0.50    0.61
   4   6   5    3.13    1.21
   4   6   5    0.83    0.80
  -5  -6  -5   10.69    2.48
  -5   6  -5    8.79    2.31
  -5   6  -5   11.32    2.39
  -5   6  -5   13.29    2.34
   5   6   5    8.27    2.35
   5   6   5    6.87    2.41
  -6  -6  -5    0.83    0.97
   6   6   5    0.42    1.03
  -6   6  -5    0.62    0.61
  -6   6  -5    0.36    0.81
   6   6   5    0.01    0.92
  -6   6  -5    0.60    1.04
  -6   6  -5   -0.18    0.98
  -6   6  -5    0.73    1.07
   7   6   5    1.48    1.24
  -7   6  -5    2.94    1.10
  -7   6  -5    3.19    1.13
  -7   6  -5    1.68    1.11
  -7   6  -5    1.10    1.15
   8   6   5   -0.34    1.16
  -8   6  -5    1.09    1.17
  -8   6  -5    1.18    1.00
  -8   6  -5    0.39    0.76
  -9  -6  -5    0.15    1.23
  -9   6  -5    0.99    1.21
   9   6   5    1.48    1.33
  -9   6  -5    0.22    0.66
  -9   6  -5    2.60    1.00
 -10  -6  -5    0.18    0.88
 -10   6  -5   -0.62    0.98
 -10   6  -5    0.62    0.93
  10   6   5    3.27    1.56
 -10   6  -5    1.00    0.66
 -11  -7   5   -0.02    1.72
  11   7  -5   -0.60    1.39
 -11   7   5    0.26    1.15
 -10  -7   5   -1.37    1.53
  10  -7  -5    3.07    2.33
 -10   7   5   -1.34    1.13
  10   7  -5    1.88    1.35
   9  -7  -5   12.99    3.04
  -9  -7   5    7.37    2.80
   9   7  -5   12.00    2.42
  -9   7   5    7.34    2.31
  -8  -7   5   -0.42    1.62
   8  -7  -5    1.71    1.77
  -8   7   5   -0.31    0.99
   8   7  -5    0.49    1.04
   7  -7  -5    2.66    1.54
  -7  -7   5    1.95    1.56
  -7   7   5   -0.03    1.01
   7   7  -5    1.25    0.94
   6  -7  -5   -0.52    1.30
  -6  -7   5   -0.13    1.92
   6   7  -5   -0.01    0.82
  -6   7   5    0.62    0.90
  -5  -7   5   -7.01    2.74
   5  -7  -5   -1.48    1.25
  -5   7   5   -0.05    0.78
   5   7  -5    0.04    0.73
   4  -7  -5    0.01    1.26
  -4   7   5   -0.61    0.73
   4   7  -5   -0.18    0.72
  -4   7   5    0.41    0.89
   3  -7  -5    2.00    0.74
  -3   7   5    1.59    0.79
   3   7  -5    2.07    0.92
  -3   7   5    3.28    1.03
   3   7  -5    2.02    0.85
   2  -7  -5    1.94    0.84
  -2   7   5    2.29    0.81
   2   7  -5    2.65    0.84
  -2   7   5    4.13    1.06
   2   7  -5    2.85    0.95
   1  -7  -5    3.80    1.24
   1   7  -5    4.91    1.32
   1   7  -5    6.31    1.21
   1   7  -5    4.87    1.21
  -1   7   5    3.35    1.26
  -1   7   5    6.66    1.41
   0  -7  -5    0.22    0.61
   0   7   5   -0.94    0.57
   0   7  -5   -0.03    0.47
   0   7   5    0.75    0.78
   0   7  -5    0.83    0.47
   0   7  -5    1.52    0.79
  -1  -7  -5   -0.37    0.58
   1   7   5   -0.48    0.61
  -1   7  -5    0.51    0.52
   1   7   5   -0.14    0.80
  -1   7  -5    0.84    0.47
  -1   7  -5    0.26    0.76
  -1   7  -5    0.31    0.54
  -2  -7  -5    2.81    0.80
  -2   7  -5    0.72    0.85
   2   7   5    1.54    0.77
  -2   7  -5    1.48    0.67
   2   7   5    1.29    0.81
  -2   7  -5   -0.01    0.82
  -2   7  -5    0.74    0.57
  -2   7  -5    2.27    0.65
  -3  -7  -5    1.09    0.83
   3   7   5   -0.52    0.81
  -3   7  -5   -0.17    0.71
  -3   7  -5    0.00    0.78
   3   7   5    1.77    0.72
  -3   7  -5    1.02    0.67
  -3   7  -5    0.28    0.78
  -3   7  -5    0.91    0.57
  -4  -7  -5    2.52    1.29
  -4   7  -5    3.36    1.11
   4   7   5    2.25    1.04
  -4   7  -5    5.08    1.19
  -4   7  -5    4.39    0.97
   4   7   5    0.97    1.06
  -4   7  -5    4.11    1.10
  -4   7  -5    2.04    0.91
  -5  -7  -5    0.18    1.18
  -5   7  -5    0.98    0.90
   5   7   5    0.78    0.80
  -5   7  -5    0.26    0.94
   5   7   5   -0.14    0.84
  -5   7  -5    0.24    0.56
  -5   7  -5   -0.37    0.76
  -5   7  -5    0.00    1.02
  -6  -7  -5    0.83    1.42
  -6   7  -5    0.39    0.85
  -6   7  -5    1.87    1.13
   6   7   5    0.26    1.06
  -6   7  -5    0.40    0.68
   6   7   5   -0.26    0.87
  -6   7  -5    0.81    1.09
  -6   7  -5   -0.19    0.93
  -7  -7  -5   -1.60    1.74
  -7   7  -5    0.46    1.02
  -7   7  -5    0.72    1.03
  -7   7  -5    2.26    1.05
  -7   7  -5    1.30    0.62
   7   7   5    1.62    1.29
   8   7   5    0.97    1.08
   8   7   5    1.40    1.13
  -8   7  -5    0.02    1.00
  -8   7  -5    1.31    0.61
  -8   7  -5    0.11    1.02
  -9  -7  -5   -1.13    1.25
  -9   7  -5    0.32    0.63
   9   7   5    1.73    1.70
  -9   7  -5    0.74    0.97
  -9   7  -5   -0.27    0.99
   9   7   5    2.64    1.13
 -10  -8   5    5.53    2.06
 -10   8   5    1.78    1.15
  10   8  -5   -0.23    1.29
   9  -8  -5    0.90    3.43
  -9  -8   5    2.75    1.64
   9   8  -5   -0.79    1.14
  -9   8   5   -0.62    1.01
  -8  -8   5   -1.59    2.52
   8  -8  -5    5.49    2.83
  -8   8   5   -0.04    0.98
   8   8  -5   -1.50    1.01
   7  -8  -5    2.68    2.19
  -7  -8   5    0.04    1.90
   7   8  -5   -1.32    0.86
  -7   8   5   -1.00    0.91
   6  -8  -5    3.40    2.17
  -6  -8   5   -2.90    2.58
  -6   8   5   -0.51    0.87
   6   8  -5    0.96    0.96
  -6   8   5    0.89    0.91
   5  -8  -5    3.49    1.99
   5   8  -5   -0.29    0.75
  -5   8   5   -0.52    0.80
   4  -8  -5    1.27    0.80
   4   8  -5    1.31    0.89
   4   8  -5    0.73    0.75
  -4   8   5    1.24    0.81
   3  -8  -5    1.10    0.71
   3   8  -5    0.82    0.69
   3   8  -5    0.47    0.93
  -3   8   5    0.67    0.64
   2  -8  -5    1.75    0.78
   2   8  -5    2.44    0.88
  -2   8   5    1.20    0.96
  -2   8   5    1.39    0.67
   2   8  -5    0.65    0.70
   1  -8  -5    0.82    0.68
  -1   8   5    0.25    0.65
   1   8  -5    1.17    0.66
   1   8  -5    0.26    0.77
  -1   8   5    0.97    0.93
   0  -8  -5   -0.35    0.63
   0   8  -5    0.44    0.79
   0   8  -5    0.13    0.54
   0   8   5   -0.54    0.54
   0   8  -5    0.39    0.48
   0   8   5    0.26    0.88
  -1  -8  -5    4.96    1.22
   1   8   5    3.47    1.12
  -1   8  -5    3.73    1.08
  -1   8  -5    2.95    1.43
  -1   8  -5    5.61    1.15
   1   8   5    4.81    1.33
  -1   8  -5    4.05    1.20
  -2  -8  -5    0.77    0.85
  -2   8  -5   -0.39    0.91
  -2   8  -5    2.28    0.62
   2   8   5    0.67    0.85
  -2   8  -5    0.31    0.50
  -2   8  -5    0.70    0.55
  -2   8  -5    1.64    0.92
   2   8   5    0.42    0.73
  -3  -8  -5   -0.22    0.94
  -3   8  -5   -0.36    0.63
  -3   8  -5   -1.09    0.58
  -3   8  -5    1.53    0.90
  -3   8  -5    0.88    1.14
  -3   8  -5   -0.39    0.55
   3   8   5   -0.63    0.73
   3   8   5    0.22    0.87
  -4  -8  -5    2.09    1.43
  -4   8  -5    1.26    0.69
  -4   8  -5    4.20    1.26
   4   8   5    0.74    0.83
   4   8   5   -0.50    1.22
  -4   8  -5    1.35    0.71
  -4   8  -5    0.80    0.85
  -4   8  -5    3.66    1.03
  -5  -8  -5   -0.06    1.41
   5   8   5    0.17    0.85
  -5   8  -5    0.41    1.01
  -5   8  -5    0.96    0.87
  -5   8  -5    0.33    1.05
  -5   8  -5    0.39    0.57
   5   8   5    0.00    0.82
  -5   8  -5    0.69    0.87
  -6  -8  -5   -0.23    1.36
   6   8   5   -2.07    0.87
  -6   8  -5    0.48    1.05
  -6   8  -5    0.21    0.83
  -6   8  -5   -0.26    0.51
  -6   8  -5    0.60    0.95
   6   8   5    0.01    0.88
  -6   8  -5    0.38    1.07
  -7  -8  -5    1.48    1.54
  -7   8  -5    0.81    0.63
  -7   8  -5    0.96    1.13
  -7   8  -5    2.68    1.19
   7   8   5    1.99    1.06
  -7   8  -5    2.79    1.06
   7   8   5    1.23    1.04
  -8   8  -5    1.44    1.02
   8   8   5    0.15    1.30
  -8   8  -5   -1.50    0.67
  -8   8  -5    0.87    0.96
   8   8   5    0.50    1.00
  -9  -9   5    4.50    3.98
  -9   9   5   -0.20    0.84
   9   9  -5   -0.39    1.21
  -8  -9   5   -2.27    2.41
   8   9  -5   -1.61    0.99
  -8   9   5   -0.19    0.97
  -7  -9   5    7.20    4.17
   7   9  -5    2.06    1.02
  -7   9   5    2.25    1.08
  -7   9   5    2.08    1.12
   6   9  -5    1.32    1.05
   6   9  -5    1.54    0.92
  -6   9   5    0.86    0.94
  -6   9   5    2.15    0.97
   5  -9  -5    2.10    1.31
  -5   9   5    0.96    0.90
   5   9  -5    1.11    0.83
   5   9  -5    0.67    0.99
   4  -9  -5    1.12    1.11
   4   9  -5    2.13    0.96
  -4   9   5    2.87    1.04
   4   9  -5    2.34    0.94
   3  -9  -5    0.28    0.95
  -3   9   5   -0.02    0.69
   3   9  -5   -0.61    0.87
   2  -9  -5    0.79    0.90
   2   9  -5   -0.13    0.82
  -2   9   5    0.73    0.79
   2   9  -5    0.46    0.67
   1  -9  -5    1.17    0.86
   1   9  -5    1.95    0.91
  -1   9   5    0.98    0.71
   1   9  -5    1.58    0.68
   0  -9  -5    1.25    0.79
   0   9  -5    1.27    0.77
   0   9   5    1.59    0.76
   0   9  -5    1.58    0.83
   0   9   5    1.32    1.15
  -1  -9  -5    1.34    0.86
   1   9   5    1.50    1.04
  -1   9  -5    1.97    0.93
   1   9   5    0.92    0.71
  -1   9  -5    1.70    0.67
  -2  -9  -5   -0.79    0.95
   2   9   5    0.28    1.00
  -2   9  -5    1.07    0.59
   2   9   5    0.90    0.74
  -2   9  -5    1.01    1.15
  -2   9  -5    0.91    1.00
  -3  -9  -5    4.12    1.65
  -3   9  -5    2.86    0.76
   3   9   5    2.12    1.09
   3   9   5    1.91    1.02
  -3   9  -5    0.20    1.14
  -3   9  -5    3.88    1.32
  -3   9  -5   -0.18    1.31
  -4  -9  -5    0.29    1.56
   4   9   5   -0.10    0.93
  -4   9  -5   -1.58    1.74
  -4   9  -5    0.48    0.54
  -4   9  -5    0.12    0.97
  -4   9  -5    0.18    0.61
  -4   9  -5   -0.40    0.65
   4   9   5   -0.93    0.81
  -5  -9  -5    0.74    1.58
   5   9   5   -0.15    0.88
  -5   9  -5    1.66    1.15
  -5   9  -5   -0.73    0.52
  -5   9  -5    0.01    0.82
  -5   9  -5   -0.43    0.74
  -5   9  -5    1.03    0.90
   5   9   5   -0.37    0.91
  -6  -9  -5    2.04    1.47
   6   9   5   -2.11    0.91
  -6   9  -5   -1.39    0.78
  -6   9  -5   -0.51    0.85
  -6   9  -5    0.18    1.11
  -6   9  -5    1.05    0.82
   6   9   5    0.57    0.95
  -6   9  -5   -2.01    0.55
  -7  -9  -5   -1.29    1.56
   7   9   5    2.58    1.10
   7   9   5    0.10    1.00
  -7   9  -5    0.26    0.90
  -7   9  -5   -1.02    0.94
  -7   9  -5    0.29    1.10
   7  10  -5    3.33    1.21
   7  10  -5    1.91    1.19
  -7  10   5    3.88    1.27
  -6  10   5    0.52    0.99
  -6  10   5    2.19    1.12
   6  10  -5    1.69    0.93
   6  10  -5    1.16    0.92
   5 -10  -5   -1.37    1.87
  -5  10   5    0.05    0.87
  -5  10   5    0.15    0.93
   5  10  -5    0.05    0.81
   5  10  -5   -0.31    0.83
   4 -10  -5    0.13    1.52
  -4  10   5    0.19    0.92
   4  10  -5    0.04    0.73
   4  10  -5    0.23    0.79
   3 -10  -5    0.42    1.43
   3  10  -5   -0.20    0.72
  -3  10   5   -0.54    0.76
   3  10  -5   -0.34    0.77
  -2  10   5    0.50    0.80
   2  10  -5    0.18    0.75
   2  10  -5    0.84    0.69
   1 -10  -5   -1.02    1.01
  -1  10   5   -0.80    0.71
   1  10  -5    0.28    0.64
   1  10  -5    0.78    0.84
   0 -10  -5    0.23    0.96
   0  10   5   -0.58    0.79
   0  10  -5    1.04    0.91
   0  10  -5    0.13    0.79
  -1 -10  -5    2.38    1.08
  -1  10  -5    0.50    0.91
   1  10   5    0.83    0.84
  -1  10  -5    0.07    0.65
   2  10   5   -0.75    1.07
   2  10   5    1.24    0.79
  -2  10  -5    0.79    0.62
  -2  10  -5    1.07    1.07
  -3 -10  -5    1.11    1.40
   3  10   5   -0.71    1.02
  -3  10  -5    0.03    0.57
  -3  10  -5   -0.24    1.42
  -3  10  -5    2.21    1.42
   3  10   5    0.67    0.79
  -4 -10  -5    3.61    1.64
   4  10   5    1.94    1.09
  -4  10  -5    1.10    1.08
  -4  10  -5    0.89    1.38
  -4  10  -5    0.70    0.77
   4  10   5    1.40    0.92
  -5 -10  -5    4.77    1.86
   5  10   5    4.67    1.39
  -5  10  -5    6.08    1.49
  -5  10  -5    4.91    1.33
   5  10   5    0.73    1.25
  -5  10  -5    2.29    1.11
  -6 -10  -5   -0.16    1.75
  -6  10  -5    0.43    0.77
   6  10   5   -0.42    1.12
   6  10   5    0.66    1.05
  -6  10  -5   -0.05    1.16
  -6  10  -5   -1.02    0.86
  -6  10  -5   -0.54    0.78
  -5  11   5    4.05    1.25
   5  11  -5    1.33    0.93
   5  11  -5    2.27    0.99
  -5  11   5    2.52    1.08
  -4  11   5    0.82    0.96
   4  11  -5    0.69    0.82
   4  11  -5    2.06    0.87
  -4  11   5    2.95    1.14
   3 -11  -5    4.57    1.98
  -3  11   5    2.75    1.11
   3  11  -5    2.71    0.97
   3  11  -5    2.57    1.00
   2 -11  -5   -2.51    1.42
   2  11  -5    0.30    0.83
  -2  11   5    0.78    0.83
   2  11  -5    0.25    0.68
   1 -11  -5   -1.44    1.28
  -1  11   5   -0.02    0.77
   1  11  -5    0.48    0.68
   1  11  -5    1.19    0.86
   0 -11  -5    2.50    1.34
   0  11  -5    1.18    0.98
   0  11  -5   -0.02    0.64
   0  11   5    0.09    0.78
  -1 -11  -5    0.08    1.45
   1  11   5   -0.65    0.88
  -1  11  -5    1.48    0.98
  -1  11  -5    0.84    1.02
  -2 -11  -5    1.20    1.53
  -2  11  -5    0.51    1.00
  -2  11  -5    0.13    0.63
   2  11   5   -0.23    0.88
  -3 -11  -5    1.25    1.67
  -3  11  -5    3.35    1.20
   3  11   5    1.44    0.93
  -3  11  -5    1.15    0.74
  -4 -11  -5    1.05    1.87
  -4  11  -5    0.66    0.71
   4  11   5   -0.11    0.94
  -4  11  -5    0.78    2.30
  -4  11  -5    0.21    0.89
 -13   0   6    0.43    0.45
  13   0  -6   -0.14    1.14
 -13   0   6   -0.20    1.31
  12   0  -6    0.74    1.05
 -12   0   6    0.54    0.40
  11   0  -6    2.94    1.52
  10   0  -6    2.88    1.60
   9   0  -6   -0.66    0.91
  -9   0   6    1.16    0.98
  -8   0   6   24.96    5.17
   8   0  -6   21.19    5.14
  -7   0   6   30.37    6.31
   7   0  -6   26.75    6.27
   6   0  -6    5.96    1.55
  -6   0   6    7.43    2.18
  -5   0   6    1.13    1.07
   5   0  -6    1.21    0.70
   4   0  -6   27.19    6.01
   4   0  -6   27.47    6.00
   3   0  -6   15.38    3.66
   3   0  -6   17.70    3.66
   2   0  -6    8.54    1.99
   2   0  -6    8.80    2.03
   1   0  -6   12.10    2.80
   1   0  -6   12.02    2.73
  -1   0   6   13.24    2.80
   0   0   6   12.77    3.01
   0   0  -6   13.30    2.93
  -1   0  -6   17.58    3.74
   1   0   6   15.53    3.84
   2   0   6   13.37    2.71
  -2   0  -6   10.47    2.51
  -3   0  -6   38.31    8.99
  -3   0  -6   45.83    9.00
   3   0   6   34.86    9.18
  -4   0  -6    2.34    0.73
   4   0   6    1.47    2.06
  -4   0  -6    1.03    0.61
  -5   0  -6    0.04    0.56
  -5   0  -6    0.51    0.61
   5   0   6   -3.56    2.23
  -6   0  -6    1.17    0.70
   6   0   6   -8.39    3.99
  -6   0  -6    0.69    0.65
  -7   0  -6    4.94    1.23
  -7   0  -6    4.00    1.26
  -8   0  -6    0.61    0.66
  -8   0  -6    0.99    0.82
  -9   0  -6    0.38    0.65
  -9   0  -6    1.14    0.90
 -10   0  -6   -0.42    0.71
 -10   0  -6    0.23    0.59
 -11   0  -6    0.38    0.78
 -11   0  -6    1.14    0.61
 -13  -1   6    0.08    0.36
 -13  -1   6   -1.88    1.36
  13  -1  -6   -2.78    1.24
 -13   1   6    0.67    0.93
  13   1  -6    0.30    1.05
 -13   1   6   -0.07    0.79
  12  -1  -6    2.60    1.38
  12   1  -6    4.11    1.34
 -11  -1   6    0.48    1.29
  11  -1  -6   -0.61    1.39
  11   1  -6    1.31    1.46
 -11   1   6    0.50    0.43
  10  -1  -6    1.39    1.11
 -10  -1   6    1.98    1.69
 -10   1   6    1.26    1.26
 -10   1   6    0.45    0.38
   9  -1  -6    3.59    1.24
  -9   1   6    4.39    1.53
   9   1  -6    3.24    1.18
   8  -1  -6    1.06    0.87
  -8  -1   6    0.24    0.95
  -8   1   6   -0.01    0.30
   8   1  -6    1.84    0.88
  -8   1   6    0.20    0.95
   7  -1  -6    2.52    0.94
  -7  -1   6    2.72    1.02
  -7   1   6    1.12    1.17
   7   1  -6    1.69    0.86
   6  -1  -6   -0.13    0.72
  -6  -1   6    0.34    1.69
  -6   1   6   -0.04    0.35
   6   1  -6    0.28    0.65
   5  -1  -6    2.29    0.86
  -5  -1   6    5.01    1.13
   5   1  -6    2.17    0.70
  -5   1   6    0.50    0.52
  -4  -1   6    1.83    1.13
   4  -1  -6    1.33    0.71
   4  -1  -6    0.58    0.46
   4   1  -6    1.37    0.57
   4   1  -6    0.29    0.73
  -4   1   6    0.53    0.48
   3  -1  -6   11.12    2.72
   3  -1  -6   11.98    2.68
   3   1  -6   13.60    2.72
   3   1  -6   11.14    2.73
   2  -1  -6    5.92    1.57
  -2  -1   6    9.83    2.03
   2  -1  -6    6.17    1.64
   2   1  -6    7.25    1.60
  -1  -1   6    0.13    0.50
   1  -1  -6    0.14    0.34
   1  -1  -6   -0.06    0.58
  -1   1   6    1.30    0.77
   1   1  -6    0.58    0.45
   0  -1  -6    2.41    0.66
   0  -1   6    1.40    0.83
   0  -1  -6    1.74    0.55
   0   1  -6    2.21    0.64
  -1  -1  -6    7.39    1.80
  -1  -1  -6    7.93    1.79
   1  -1   6    6.33    2.13
   1   1   6   10.06    1.94
  -2  -1  -6    1.51    0.53
  -2   1  -6    2.17    0.59
   2   1   6    2.05    1.00
  -2   1  -6    1.46    0.59
  -3  -1  -6   -0.28    0.43
  -3  -1  -6   -0.14    0.53
  -3   1  -6    0.01    0.33
   3   1   6    0.12    1.16
  -3   1  -6   -0.19    0.50
  -4  -1  -6    2.49    0.77
  -4  -1  -6    1.41    0.63
  -4   1  -6    3.55    0.88
  -4   1  -6    1.49    0.60
   4   1   6    3.03    1.55
  -4   1  -6    1.39    0.72
  -5  -1  -6    3.22    0.86
  -5  -1  -6    1.76    0.77
  -5   1  -6    2.88    0.85
  -5   1  -6    2.14    0.99
  -5   1  -6    1.62    0.72
   5   1   6    4.29    1.79
  -6  -1  -6    0.19    0.61
  -6  -1  -6   -0.23    0.62
  -6   1  -6   -0.50    0.87
   6   1   6   -1.01    1.87
  -6   1  -6    1.51    0.72
  -6   1  -6    1.10    0.57
  -7  -1  -6   17.40    3.55
  -7  -1  -6   14.04    3.53
  -7   1  -6   15.37    3.53
   7   1   6   14.42    4.11
  -7   1  -6   18.08    3.62
  -7   1  -6   14.75    3.55
  -8  -1  -6    0.76    0.76
  -8  -1  -6   -0.59    0.61
   8   1   6    1.99    2.78
  -8   1  -6    0.39    1.01
  -8   1  -6    0.29    0.89
  -8   1  -6    0.60    0.66
  -9  -1  -6    0.66    0.96
  -9  -1  -6   -0.38    0.63
  -9   1  -6   -0.29    0.56
  -9   1  -6    0.06    0.81
 -10  -1  -6   -0.23    0.61
 -10  -1  -6   -0.52    0.88
 -10   1  -6    0.58    0.85
 -10   1  -6   -0.22    0.54
 -11  -1  -6    1.39    0.71
 -11  -1  -6    1.39    0.72
 -11   1  -6    0.47    0.67
 -11   1  -6    2.34    0.95
 -13  -2   6    0.17    0.38
  13  -2  -6   -0.63    1.38
 -13  -2   6    4.68    1.97
  13   2  -6    0.01    1.02
 -12  -2   6    0.08    1.48
  12  -2  -6   -0.12    1.15
 -12  -2   6   -0.48    1.12
  12   2  -6   -0.21    1.01
 -12   2   6    0.62    0.76
 -12   2   6    1.03    1.65
 -11  -2   6    0.49    1.04
 -11   2   6    1.97    1.41
 -11   2   6   -0.28    0.76
  11   2  -6    1.70    1.02
  10  -2  -6   -1.63    1.12
 -10  -2   6    0.10    1.66
 -10   2   6    1.69    1.20
  10   2  -6   -0.38    0.87
 -10   2   6   -0.16    0.68
  -9  -2   6    5.23    1.59
   9  -2  -6    6.15    1.62
   9   2  -6    4.38    1.54
  -9   2   6    7.64    1.74
   8  -2  -6    1.69    0.97
  -8  -2   6   -0.74    0.94
   8   2  -6    0.44    0.88
  -8   2   6    0.96    1.06
  -8   2   6    0.21    0.36
  -7  -2   6    2.90    1.30
   7  -2  -6    2.98    1.19
   7   2  -6    4.14    1.17
  -7   2   6    3.89    1.39
   6  -2  -6    0.73    0.81
  -6  -2   6    2.13    1.08
   6   2  -6    1.13    0.68
  -6   2   6    0.80    0.48
  -5  -2   6   17.01    3.07
   5  -2  -6    9.35    2.93
   5   2  -6   13.32    2.88
   4  -2  -6    2.25    0.76
  -4  -2   6    2.29    1.20
   4  -2  -6    0.78    0.55
   4   2  -6    1.58    0.61
   4   2  -6    1.09    0.55
  -4   2   6    0.70    0.62
   3  -2  -6    0.97    0.59
  -3  -2   6    3.07    1.29
   3  -2  -6    1.68    0.76
  -3   2   6    0.94    1.00
   3   2  -6    1.86    0.70
  -2  -2   6    2.05    1.34
   2  -2  -6    0.71    0.80
   2  -2  -6    1.61    0.58
   2   2  -6    1.41    0.67
  -2   2   6   -0.43    0.88
   1  -2  -6    0.86    0.61
   1  -2  -6    0.17    0.38
   1   2  -6    0.89    0.45
  -1   2   6    0.47    0.81
   0  -2  -6   28.69    6.03
   0  -2  -6   28.07    6.03
   0   2   6   24.85    6.08
   1   2   6   10.12    2.40
   2   2   6    0.75    0.84
  -2   2  -6   -0.73    0.81
  -2   2  -6    1.41    0.55
  -2   2  -6    1.13    0.41
  -3  -2  -6   -0.12    0.55
  -3  -2  -6   -0.31    0.34
  -3  -2  -6   -0.35    0.54
  -3   2  -6   -0.17    0.56
  -3   2  -6   -0.11    0.43
  -3   2  -6    0.38    0.70
  -3   2  -6   -1.00    0.98
   3   2   6   -0.62    0.95
  -4  -2  -6    0.03    0.59
  -4  -2  -6   -0.27    0.46
  -4  -2  -6   -0.45    0.64
  -4   2  -6   -0.57    0.67
   4   2   6    1.59    1.13
  -4   2  -6    0.07    0.76
  -4   2  -6   -0.16    0.32
  -5  -2  -6    1.44    0.70
   5   2   6    6.91    1.65
  -5   2  -6    3.77    0.96
  -5   2  -6    1.75    0.63
  -5   2  -6    2.03    0.83
  -6  -2  -6    0.32    0.50
  -6   2  -6    1.50    0.67
   6   2   6   -1.06    1.64
  -6   2  -6    1.16    0.54
  -6   2  -6    2.61    0.91
  -7  -2  -6    0.18    0.55
  -7   2  -6   -0.69    0.62
  -7   2  -6   -0.08    0.93
  -7   2  -6    0.79    0.57
  -8  -2  -6    0.16    0.69
  -8  -2  -6    0.26    0.66
  -8   2  -6    0.42    0.71
  -8   2  -6    0.42    0.62
  -8   2  -6   -0.96    1.09
   8   2   6    2.03    2.21
  -9  -2  -6    0.73    0.67
  -9  -2  -6    0.03    0.71
  -9   2  -6    1.24    0.80
  -9   2  -6    3.48    1.10
  -9   2  -6   -0.65    0.56
   9   2   6    5.98    2.44
 -10  -2  -6   -0.17    0.63
 -10  -2  -6    0.54    0.65
  10   2   6    8.27    3.18
 -10   2  -6   -0.30    1.00
 -10   2  -6    0.50    0.51
 -10   2  -6   -0.24    0.84
 -11  -2  -6    0.40    0.67
 -11  -2  -6    0.87    0.66
 -11   2  -6    0.35    0.50
 -11   2  -6    0.42    0.81
 -12  -3   6    0.84    1.11
 -12  -3   6   -2.07    2.31
  12  -3  -6    0.29    1.25
 -12   3   6   -0.38    1.43
  12   3  -6   -0.05    1.09
  11  -3  -6    0.82    1.47
 -11  -3   6   -1.04    1.12
 -11   3   6   -0.01    0.73
  11   3  -6    0.13    1.08
 -11   3   6   -0.99    1.26
 -10  -3   6    0.21    1.09
  10   3  -6   -0.55    0.94
 -10   3   6    0.58    0.72
 -10   3   6   -0.66    1.20
   9  -3  -6    0.02    1.01
  -9  -3   6   -0.61    1.11
  -9   3   6    0.03    0.78
  -9   3   6   -0.39    0.93
   9   3  -6    0.23    1.01
  -8  -3   6   -1.01    1.10
   8  -3  -6   -0.03    1.00
  -8   3   6    0.01    0.64
  -8   3   6    0.20    1.00
   8   3  -6   -0.19    0.91
   7  -3  -6    0.97    0.94
  -7  -3   6    1.25    1.10
   7   3  -6    1.84    0.81
  -7   3   6    0.93    0.75
  -7   3   6    1.01    0.92
  -6  -3   6    6.12    1.55
   6  -3  -6    3.52    1.16
  -6   3   6    3.66    1.20
   6   3  -6    4.15    1.13
  -5  -3   6    2.54    1.21
   5  -3  -6    1.16    0.85
  -5   3   6    0.99    0.86
   5   3  -6    1.64    0.68
  -4  -3   6    4.67    1.44
   4  -3  -6    3.01    1.03
  -4   3   6    3.89    1.91
   4   3  -6    3.77    0.98
   3  -3  -6    7.14    1.50
  -3  -3   6    8.63    1.98
   3   3  -6    6.43    1.47
  -3   3   6    1.72    1.73
  -2  -3   6   27.85    5.27
   2  -3  -6   20.86    5.03
   2  -3  -6   29.76    5.24
  -2   3   6   18.37    5.11
   2   3  -6   22.74    5.01
   1   3  -6   33.84    8.29
  -1   3   6   41.91    8.33
   0  -3  -6    0.38    0.47
   0  -3  -6    0.32    0.47
   0   3  -6    2.92    0.57
   0   3  -6    0.47    0.36
   0   3   6    0.41    0.83
  -1  -3  -6    1.42    0.54
  -1   3  -6    0.02    0.41
  -1   3  -6   -0.79    0.74
   1   3   6    1.53    0.79
  -1   3  -6    0.11    0.40
  -2  -3  -6   -0.08    0.53
  -2  -3  -6    0.09    0.38
  -2   3  -6    0.14    0.42
  -2   3  -6    0.05    0.50
   2   3   6    1.28    0.86
  -2   3  -6   -1.31    0.72
  -3  -3  -6   13.91    3.06
  -3   3  -6   13.39    3.10
  -3   3  -6   13.50    3.05
   3   3   6   15.15    3.17
  -3   3  -6   12.48    3.09
  -4  -3  -6    7.74    1.91
  -4  -3  -6   11.16    1.96
  -4   3  -6    7.43    1.90
  -4   3  -6    6.29    2.13
  -4   3  -6    5.86    1.82
  -4   3  -6    9.23    1.94
   4   3   6   10.99    2.07
  -5  -3  -6    0.99    0.74
  -5  -3  -6    0.49    0.47
  -5   3  -6    1.57    0.83
  -5   3  -6    1.00    0.53
  -5   3  -6    0.31    0.62
   5   3   6    2.54    1.33
  -6  -3  -6    0.91    0.60
  -6   3  -6    1.52    0.75
   6   3   6    3.09    2.04
  -6   3  -6    2.25    0.71
  -6   3  -6    1.50    0.93
  -7  -3  -6    0.36    0.52
   7   3   6    2.18    1.77
  -7   3  -6    0.13    0.90
  -7   3  -6    0.89    0.78
  -7   3  -6    1.53    1.16
  -8  -3  -6    0.78    0.61
   8   3   6   -1.59    2.05
  -8   3  -6    1.46    1.20
  -8   3  -6   -0.47    0.79
  -8   3  -6   -0.28    0.86
  -9  -3  -6    0.37    0.55
  -9   3  -6    0.71    1.01
  -9   3  -6   -0.75    0.76
  -9   3  -6    1.88    0.84
 -10  -3  -6    2.26    0.95
 -10  -3  -6    2.35    0.94
  10   3   6    5.15    2.79
 -10   3  -6    4.57    1.20
 -10   3  -6    1.83    0.93
 -10   3  -6    2.75    1.09
 -11  -3  -6    0.56    0.61
 -11  -3  -6    0.20    0.66
 -11   3  -6   -0.56    0.60
 -11   3  -6    1.26    0.96
  11   3   6   -1.84    3.32
 -11   3  -6    0.19    0.81
  12  -4  -6    0.52    1.57
 -12  -4   6    2.41    1.34
  12   4  -6    2.04    1.10
 -12   4   6    0.41    1.40
  11  -4  -6    1.46    1.29
 -11  -4   6    0.48    1.17
  11   4  -6    1.81    1.17
 -11   4   6   -0.94    1.25
  10  -4  -6   -0.34    1.28
 -10  -4   6   -0.44    1.42
  10   4  -6    3.85    1.69
 -10   4   6    2.68    1.33
  -9  -4   6   -0.14    1.15
   9  -4  -6   -1.22    1.13
   9   4  -6    1.15    1.08
  -9   4   6    0.66    1.13
  -9   4   6   -0.25    0.75
  -8  -4   6    1.21    1.35
   8  -4  -6    1.41    0.90
  -8   4   6   -0.09    1.05
   8   4  -6    0.53    1.00
  -8   4   6    0.70    0.72
   7  -4  -6    2.78    1.08
  -7  -4   6    4.05    1.63
  -7   4   6    2.46    0.98
  -7   4   6    2.36    1.11
   7   4  -6    4.09    1.01
   6  -4  -6    0.77    0.82
  -6  -4   6    3.65    1.39
  -6   4   6    1.04    0.82
   5  -4  -6    3.99    1.14
  -5  -4   6    6.86    1.70
  -5   4   6    2.93    1.26
  -4  -4   6    1.19    1.37
   4  -4  -6   -1.46    0.90
   4   4  -6    0.72    0.55
  -4   4   6    0.14    0.95
   3  -4  -6    2.20    1.24
  -3  -4   6    1.25    1.57
  -3   4   6    2.26    1.14
   3   4  -6    2.68    0.73
   2  -4  -6    7.54    1.41
  -2  -4   6    1.45    2.19
   2   4  -6    3.80    1.06
   1  -4  -6    0.42    0.57
   1  -4  -6    1.35    0.63
   1   4  -6    1.73    0.51
   1   4  -6    2.38    1.02
  -1   4   6    2.96    1.15
   1   4  -6    1.13    0.59
   0  -4  -6   16.46    3.54
   0  -4  -6   13.64    3.52
   0   4  -6   18.17    3.50
   0   4  -6   16.70    3.52
   0   4  -6   12.95    3.57
  -1  -4  -6   10.63    2.51
  -1  -4  -6   10.57    2.51
  -1   4  -6   13.02    2.50
  -1   4  -6    9.84    2.51
  -1   4  -6   11.77    2.49
   1   4   6   10.82    2.76
  -2  -4  -6   14.24    3.25
  -2  -4  -6   14.30    3.28
  -2   4  -6   17.36    3.24
  -2   4  -6   10.26    3.34
  -2   4  -6   16.15    3.28
  -2   4  -6   13.43    3.28
  -3  -4  -6    0.71    0.57
  -3   4  -6   -0.21    1.07
  -3   4  -6   -0.06    0.48
  -3   4  -6    2.45    1.06
  -3   4  -6    0.32    0.83
  -3   4  -6    0.98    0.60
   3   4   6    0.10    0.82
  -4  -4  -6    0.52    0.68
  -4   4  -6    0.09    0.70
   4   4   6    2.03    0.94
  -4   4  -6   -0.06    0.52
  -4   4  -6   -0.55    0.71
  -5  -4  -6   -1.27    0.72
  -5   4  -6    0.42    0.64
  -5   4  -6   -0.41    0.54
   5   4   6   -1.56    1.03
  -5   4  -6    1.14    0.74
  -6   4  -6   -0.12    0.71
   6   4   6   -0.17    1.21
  -6   4  -6   -0.60    0.68
  -6   4  -6    0.17    0.81
  -7   4  -6    2.37    1.00
   7   4   6    0.37    1.49
  -7   4  -6    0.90    0.89
  -7   4  -6    1.59    0.96
  -8   4  -6    1.48    0.95
   8   4   6    1.40    1.84
  -8   4  -6   -0.91    0.92
  -8   4  -6    0.34    0.98
  -9   4  -6    7.97    2.13
  -9   4  -6    7.13    2.06
  -9   4  -6    8.40    2.11
   9   4   6   17.28    3.19
  10   4   6    0.27    2.30
 -10   4  -6   -0.47    0.81
 -10   4  -6    0.95    0.97
 -10   4  -6    0.42    0.83
  11  -5  -6    3.25    1.40
 -11  -5   6   -0.36    1.39
  11   5  -6    1.01    1.58
  11   5  -6   -1.90    0.96
 -11   5   6    0.56    1.30
 -10  -5   6    1.92    1.42
  10  -5  -6   -2.75    2.04
  10   5  -6    1.26    1.07
 -10   5   6    0.43    1.00
   9  -5  -6    2.55    1.21
  -9   5   6    1.25    0.93
  -9   5   6    1.17    1.24
   9   5  -6    1.14    0.98
  -8  -5   6    5.04    1.83
   8  -5  -6    6.11    1.56
  -8   5   6    3.96    1.51
   7  -5  -6    1.39    1.05
  -7  -5   6    4.60    1.67
  -7   5   6    1.48    0.99
  -7   5   6    2.17    0.89
  -6  -5   6    1.62    2.59
   6  -5  -6    1.84    0.94
  -6   5   6    1.40    0.89
   5  -5  -6   -0.14    0.76
  -5  -5   6    0.99    1.55
  -5   5   6   -0.77    0.84
   4  -5  -6    9.35    2.36
  -4  -5   6    9.57    3.50
  -4   5   6   10.75    2.47
  -3  -5   6    0.75    2.19
   3  -5  -6    1.56    0.86
   3   5  -6    0.34    0.47
   3   5  -6    0.15    0.96
  -3   5   6    2.73    1.16
  -3   5   6    0.89    0.85
   2  -5  -6    1.78    0.82
   2   5  -6    5.03    1.18
  -2   5   6    4.59    1.34
   2   5  -6    3.11    0.82
   2   5  -6    4.47    0.94
  -2   5   6    3.43    1.06
   1  -5  -6    0.31    0.48
   1  -5  -6    0.67    0.74
   1   5  -6   -0.75    0.47
   1   5  -6    0.40    0.82
  -1   5   6    0.27    1.04
   1   5  -6    0.45    0.41
   0  -5  -6    5.67    1.66
   0  -5  -6    5.37    1.61
   0   5  -6    8.57    1.62
   0   5  -6    8.32    1.79
   0   5  -6    7.22    1.67
   0   5   6    8.16    1.82
  -1  -5  -6    1.51    0.61
  -1  -5  -6   -0.23    0.57
  -1   5  -6    0.35    0.71
  -1   5  -6    0.72    0.73
  -1   5  -6    0.73    0.49
   1   5   6    0.46    0.83
  -1   5  -6    0.57    0.51
  -1   5  -6    1.25    0.57
  -2  -5  -6    2.20    0.72
  -2  -5  -6    3.07    0.74
  -2   5  -6    2.56    0.73
  -2   5  -6    0.18    0.83
  -2   5  -6    2.81    0.67
  -2   5  -6   -0.47    0.77
   2   5   6    2.95    0.94
  -2   5  -6    2.66    0.87
  -3  -5  -6    4.23    1.11
   3   5   6    5.03    1.23
  -3   5  -6    3.12    1.15
  -3   5  -6    4.08    1.10
  -3   5  -6    3.81    1.11
  -3   5  -6    5.15    1.04
  -3   5  -6    2.34    1.03
  -4  -5  -6    1.95    0.87
   4   5   6    2.52    0.98
  -4   5  -6    1.52    0.85
  -4   5  -6    2.41    0.83
  -4   5  -6    2.20    0.84
  -4   5  -6    0.68    0.82
  -4   5  -6    1.25    0.98
  -5  -5  -6    0.05    0.83
   5   5   6    0.48    0.95
  -5   5  -6    0.55    0.76
  -5   5  -6    0.89    0.70
  -5   5  -6    0.19    0.67
  -5   5  -6    0.55    1.08
  -5   5  -6    0.32    0.59
  -6  -5  -6    1.12    0.91
  -6   5  -6    0.19    0.80
   6   5   6   -0.30    1.03
  -6   5  -6    0.20    1.03
  -6   5  -6    2.95    1.35
  -6   5  -6   -0.07    0.65
  -7   5  -6    5.44    1.46
  -7   5  -6    3.02    1.19
   7   5   6    4.01    1.58
  -7   5  -6    6.14    1.76
  -8   5  -6    2.63    1.07
  -8   5  -6    1.99    0.95
  -8   5  -6    1.96    1.04
   8   5   6    2.69    1.54
   9   5   6    1.45    1.68
  -9   5  -6    0.60    0.92
  -9   5  -6    1.74    1.00
  -9   5  -6    1.25    0.80
  10   5   6    1.00    2.10
 -10   5  -6    1.03    0.94
 -10   5  -6    1.06    0.79
 -10   5  -6    0.31    0.97
 -11  -6   6    0.13    1.54
  11  -6  -6   -0.67    1.65
  11   6  -6    0.20    1.51
 -11   6   6    0.66    1.26
  10  -6  -6    1.44    1.45
 -10  -6   6    2.04    1.51
 -10   6   6    1.23    1.01
  10   6  -6   -0.27    1.52
  -9  -6   6   -1.80    1.68
   9  -6  -6    0.79    1.38
   9   6  -6    0.44    1.38
  -9   6   6    0.81    1.08
   8  -6  -6    1.94    1.34
  -8  -6   6    1.95    1.71
  -8   6   6    0.95    1.16
   8   6  -6    1.14    1.31
  -8   6   6    2.23    1.02
   7  -6  -6    4.68    1.25
  -7  -6   6    2.08    1.96
  -7   6   6    2.27    1.08
   7   6  -6    2.58    1.27
   6  -6  -6    3.70    1.39
   6   6  -6    3.51    1.48
  -6   6   6    4.31    1.31
   5  -6  -6    2.60    1.13
  -5  -6   6    4.22    2.16
   5   6  -6    2.30    1.08
  -5   6   6    2.08    1.16
   4  -6  -6    0.72    0.96
   4   6  -6   -1.46    0.88
  -4   6   6    0.44    0.85
  -4   6   6    0.49    1.04
   3  -6  -6    1.89    0.72
   3   6  -6    3.17    1.07
   3   6  -6    2.73    0.69
  -3   6   6    3.12    1.25
  -3   6   6    1.15    0.97
   2  -6  -6    5.57    1.88
   2   6  -6   11.71    2.02
   2   6  -6    8.42    1.87
  -2   6   6   10.55    2.14
  -2   6   6    7.45    2.07
   2   6  -6    8.74    1.89
   1  -6  -6    0.91    0.58
   1   6  -6    0.41    0.84
   1   6  -6    1.19    0.46
  -1   6   6   -0.43    0.81
   1   6  -6    1.06    0.56
  -1   6   6   -0.42    1.00
   0  -6  -6    0.55    0.56
   0  -6  -6   -0.68    0.50
   0   6  -6    0.11    0.84
   0   6   6    0.12    0.77
   0   6  -6    0.14    0.46
   0   6  -6   -0.35    0.46
   0   6   6    0.56    0.92
  -1  -6  -6    6.80    2.01
  -1  -6  -6    7.95    2.07
  -1   6  -6    7.53    2.06
  -1   6  -6    9.18    1.98
  -1   6  -6   11.39    2.02
   1   6   6    9.22    2.10
  -2  -6  -6    1.52    0.72
  -2  -6  -6    1.86    0.68
  -2   6  -6    1.86    0.71
  -2   6  -6    1.64    0.61
  -2   6  -6    0.96    0.65
   2   6   6    2.04    0.91
  -2   6  -6    1.80    0.87
  -2   6  -6    0.86    0.82
  -3  -6  -6    0.36    0.69
  -3   6  -6    0.52    0.60
  -3   6  -6    0.36    0.53
  -3   6  -6    0.40    0.57
   3   6   6    0.28    0.84
  -3   6  -6   -0.80    0.68
  -3   6  -6    1.36    0.77
  -4  -6  -6    1.46    0.94
  -4   6  -6   -0.62    0.73
   4   6   6    1.09    0.85
  -4   6  -6    0.28    0.68
  -4   6  -6    0.05    0.92
  -4   6  -6    0.37    0.71
  -4   6  -6   -0.22    0.59
  -5  -6  -6    6.05    1.47
  -5   6  -6    3.71    1.15
  -5   6  -6    3.18    1.21
   5   6   6    5.66    1.42
  -5   6  -6    4.28    1.41
  -5   6  -6    4.09    1.28
  -5   6  -6    4.64    1.34
  -6  -6  -6    0.40    1.05
  -6   6  -6    0.55    0.88
  -6   6  -6   -1.87    0.88
  -6   6  -6    0.83    0.63
  -6   6  -6    0.98    1.08
  -6   6  -6    0.74    0.86
   6   6   6   -0.08    1.23
  -7   6  -6    3.32    1.02
  -7   6  -6    3.27    1.20
   7   6   6    3.60    1.42
  -7   6  -6    2.99    1.22
   8   6   6    0.99    1.24
  -8   6  -6   -0.52    0.92
  -8   6  -6   -0.59    0.64
  -8   6  -6    0.93    0.92
  -9  -6  -6    0.51    1.25
  -9   6  -6    0.13    0.92
  -9   6  -6    0.06    1.02
   9   6   6   -1.71    1.36
  -9   6  -6   -0.27    0.65
  10  -7  -6   -2.92    1.88
 -10  -7   6    0.70    1.86
 -10   7   6    1.27    0.94
  10   7  -6    2.48    1.43
   9  -7  -6    2.26    1.68
  -9  -7   6   -1.14    1.79
  -9   7   6    0.68    1.03
   9   7  -6    1.04    1.25
   8  -7  -6    2.63    1.69
  -8  -7   6    4.17    2.24
   8   7  -6    3.59    1.34
  -8   7   6    2.04    1.17
  -7  -7   6   -0.31    2.10
   7  -7  -6    0.04    1.40
   7   7  -6    0.89    1.02
  -7   7   6   -0.78    0.80
   6  -7  -6    0.42    1.28
  -6  -7   6    4.73    2.49
   6   7  -6    4.52    1.26
  -6   7   6    1.05    1.32
   5  -7  -6   -0.34    1.25
   5   7  -6    0.39    0.87
  -5   7   6   -0.94    0.81
  -5   7   6    1.35    0.92
   4  -7  -6    3.22    1.03
  -4   7   6    5.04    1.17
  -4   7   6    3.83    1.34
   3  -7  -6    1.53    0.75
   3   7  -6    3.86    1.02
  -3   7   6    2.16    0.86
  -3   7   6    2.12    1.14
   3   7  -6    2.47    0.86
   2  -7  -6   11.26    2.46
  -2   7   6    8.91    2.49
   2   7  -6   11.10    2.41
   2   7  -6   10.44    2.43
   2   7  -6   10.88    2.52
   1  -7  -6    2.48    0.92
  -1   7   6    5.08    1.20
   1   7  -6    3.24    0.86
  -1   7   6    0.62    1.06
   1   7  -6    2.80    1.06
   1   7  -6    3.05    0.81
   0  -7  -6   12.45    2.88
   0   7  -6   15.06    2.82
   0   7   6   12.48    2.96
   0   7  -6   10.67    2.90
   0   7  -6   11.34    2.81
  -1  -7  -6    1.51    0.70
  -1  -7  -6   -1.18    0.79
  -1   7  -6    0.76    0.62
   1   7   6    1.81    0.96
  -1   7  -6    1.77    0.94
   1   7   6    1.76    1.00
  -1   7  -6    2.90    0.69
  -2  -7  -6    2.87    0.94
  -2  -7  -6    2.41    0.84
  -2   7  -6    2.08    0.77
  -2   7  -6    1.85    0.70
   2   7   6    2.21    1.03
  -2   7  -6    2.41    0.95
  -2   7  -6    3.70    0.82
  -2   7  -6    1.73    0.93
  -3  -7  -6    1.93    0.95
   3   7   6    1.36    0.88
  -3   7  -6    1.05    0.69
  -3   7  -6   -0.16    0.56
  -3   7  -6    0.64    0.82
  -3   7  -6    0.04    0.76
  -3   7  -6    0.00    0.53
  -4  -7  -6    4.57    1.40
  -4   7  -6    3.05    0.95
  -4   7  -6    1.02    1.06
  -4   7  -6    3.90    1.15
   4   7   6    2.09    1.16
  -4   7  -6    2.85    0.97
  -4   7  -6    5.63    1.18
  -5  -7  -6    0.68    1.20
  -5   7  -6    0.45    0.92
  -5   7  -6    0.54    0.68
  -5   7  -6    0.37    0.88
  -5   7  -6    0.20    0.92
   5   7   6   -0.09    1.01
  -6  -7  -6    0.83    1.72
  -6   7  -6    2.64    1.04
  -6   7  -6    0.38    1.66
  -6   7  -6    3.19    1.15
  -6   7  -6    1.33    1.15
  -6   7  -6    2.91    1.24
  -7   7  -6    0.73    1.01
  -7   7  -6    1.20    1.09
  -7   7  -6    0.76    0.63
   7   7   6   -0.60    1.00
  -8   7  -6    0.22    1.04
  -8   7  -6    0.76    0.63
   8   7   6    0.26    1.09
  -8   7  -6    0.66    0.95
  -9  -7  -6    0.76    1.40
  -9   7  -6    1.14    1.39
  -9   7  -6    0.60    0.69
   9   7   6   -2.16    1.24
   9  -8  -6    6.42    2.46
  -9  -8   6   -1.32    2.25
   9   8  -6   -0.21    1.26
  -9   8   6   -0.47    0.97
  -8  -8   6    8.53    2.41
   8  -8  -6    0.72    2.24
  -8   8   6    0.66    1.04
   8   8  -6    1.16    1.14
  -7  -8   6    7.96    4.06
   7  -8  -6    0.58    2.67
   7   8  -6    0.42    0.96
  -7   8   6   -0.64    0.93
  -6   8   6    1.09    0.86
   6   8  -6    0.46    0.96
   5  -8  -6    1.88    1.04
   5   8  -6    3.73    1.10
  -5   8   6    4.13    1.10
   4  -8  -6    0.21    0.60
   4   8  -6    0.88    1.13
  -4   8   6    0.76    0.97
  -4   8   6   -0.20    0.98
   4   8  -6    0.67    0.80
   3  -8  -6    4.67    1.35
   3   8  -6    4.50    1.43
  -3   8   6    5.44    1.42
   3   8  -6    6.13    1.34
   2  -8  -6    1.15    0.70
  -2   8   6    2.08    1.24
  -2   8   6    0.20    0.85
   2   8  -6    3.51    0.98
   1  -8  -6    0.35    0.65
  -1   8   6    1.79    1.07
  -1   8   6   -0.45    0.77
   1   8  -6    0.66    0.91
   1   8  -6    0.10    0.61
   0  -8  -6    2.30    0.84
   0   8  -6    2.85    0.96
   0   8  -6    2.12    1.01
   0   8   6    2.82    1.10
   0   8   6    0.64    0.85
   0   8  -6    1.33    0.71
  -1  -8  -6    7.20    1.71
  -1   8  -6    5.85    1.59
   1   8   6   11.75    2.23
   1   8   6    5.03    1.69
  -1   8  -6    5.91    1.69
  -2  -8  -6    0.05    0.74
  -2  -8  -6    0.76    0.90
  -2   8  -6    0.86    0.44
  -2   8  -6    0.02    1.01
  -2   8  -6    0.24    0.72
  -2   8  -6    1.62    0.86
   2   8   6    0.86    0.97
  -3  -8  -6    0.08    0.62
  -3  -8  -6    0.97    1.37
   3   8   6   -0.30    0.93
  -3   8  -6    0.01    0.63
  -3   8  -6    0.85    0.91
  -3   8  -6   -0.30    0.66
  -3   8  -6   -0.77    0.46
  -3   8  -6   -1.42    0.93
  -4  -8  -6    0.13    1.28
  -4   8  -6    0.89    0.79
   4   8   6   -0.05    1.04
  -4   8  -6    1.48    1.10
  -4   8  -6   -0.06    0.54
  -4   8  -6   -0.36    0.98
  -4   8  -6    1.10    0.70
  -5  -8  -6    2.02    1.59
  -5   8  -6    2.21    0.91
   5   8   6    1.96    1.10
  -5   8  -6    0.89    0.94
  -5   8  -6    1.62    0.85
  -5   8  -6    1.28    0.71
  -5   8  -6    0.97    1.13
  -6  -8  -6   -0.43    1.38
   6   8   6   -0.85    0.93
  -6   8  -6   -0.31    0.56
  -6   8  -6   -1.32    0.85
  -6   8  -6    0.18    1.04
  -6   8  -6   -0.03    0.85
  -6   8  -6    0.65    0.93
  -7   8  -6    0.12    1.03
  -7   8  -6   -1.41    0.55
   7   8   6   -0.80    0.96
  -7   8  -6   -1.00    0.90
  -8   8  -6   -0.55    0.65
  -8   8  -6    1.00    1.01
   8   8   6    0.36    1.10
  -8   8  -6    2.02    1.05
  -8  -9   6   -6.17    3.76
   8  -9  -6   -2.65    1.61
  -8   9   6    0.30    1.05
   8   9  -6    0.35    1.03
   8   9  -6    0.08    1.09
   7  -9  -6   -0.26    1.29
  -7   9   6    0.41    1.00
   7   9  -6   -0.47    0.98
   7   9  -6    1.56    0.95
   6  -9  -6    0.22    1.08
   6   9  -6    1.70    0.89
   6   9  -6    0.35    0.93
  -6   9   6    0.10    0.88
   5  -9  -6   -0.12    1.06
   5   9  -6   -0.94    0.78
   5   9  -6   -0.01    0.86
  -5   9   6    0.64    0.91
   4  -9  -6    1.82    1.12
   4   9  -6    2.97    1.02
  -4   9   6    2.55    1.00
   4   9  -6    1.27    0.93
   3   9  -6    2.86    1.07
   3   9  -6    1.80    0.81
  -3   9   6    1.29    1.05
   2   9  -6    1.05    0.65
   2   9  -6    0.15    0.92
  -2   9   6    0.38    1.08
  -2   9   6   -0.52    0.86
   1   9  -6    0.13    1.04
  -1   9   6    3.16    1.24
  -1   9   6    1.37    1.16
   1   9  -6    3.46    1.12
   0   9   6    4.45    1.45
   0   9  -6    4.21    1.26
   0   9   6    1.54    1.46
  -1  -9  -6    1.38    0.77
  -1   9  -6    0.50    0.81
   1   9   6   -1.20    1.17
  -1   9  -6    0.45    0.95
  -2  -9  -6    2.69    1.17
  -2   9  -6    1.52    1.03
  -2   9  -6    0.88    0.70
   2   9   6    1.49    1.30
  -2   9  -6    1.53    0.78
  -3  -9  -6    1.43    0.82
  -3  -9  -6   -0.09    1.26
  -3   9  -6   -0.50    0.66
  -3   9  -6    0.90    0.65
  -3   9  -6   -0.42    1.50
   3   9   6    1.97    1.15
  -3   9  -6    2.59    1.02
   3   9   6    2.24    1.15
  -4  -9  -6    0.94    1.43
  -4  -9  -6    0.50    0.69
  -4   9  -6    1.08    0.57
  -4   9  -6   -0.38    1.09
  -4   9  -6    0.88    0.78
  -4   9  -6    0.83    1.02
  -4   9  -6    0.16    0.55
   4   9   6    0.48    0.98
  -5  -9  -6    1.01    1.46
  -5   9  -6   -0.15    0.82
  -5   9  -6   -0.59    1.09
   5   9   6    1.56    1.09
  -5   9  -6    0.47    0.91
  -5   9  -6    1.21    0.55
  -5   9  -6   -0.29    0.51
  -6  -9  -6    2.23    1.49
  -6   9  -6    1.16    0.97
  -6   9  -6   -0.68    0.55
  -6   9  -6    1.30    1.09
   6   9   6    2.17    1.14
  -6   9  -6    0.78    0.69
  -6   9  -6    0.80    0.88
   6 -10  -6   -2.78    1.92
   6  10  -6    0.51    0.89
   6  10  -6    0.21    0.78
  -6  10   6   -0.33    1.05
   5 -10  -6    2.27    1.53
   5  10  -6    0.32    0.94
  -5  10   6   -0.16    0.96
   5  10  -6    0.65    0.73
  -5  10   6    0.23    0.95
   4 -10  -6    2.35    1.28
   4  10  -6   -0.12    0.89
   4  10  -6    1.90    0.95
  -4  10   6    1.37    1.02
   3 -10  -6   -1.49    1.08
  -3  10   6   -0.73    0.90
   3  10  -6    0.43    0.69
   3  10  -6    0.41    0.89
   2 -10  -6    2.73    1.10
  -2  10   6    0.74    1.03
   2  10  -6    1.13    0.88
   2  10  -6    0.48    0.66
   1 -10  -6   -0.22    0.94
   1  10  -6    0.05    0.61
  -1  10   6   -0.28    1.01
   1  10  -6   -0.15    0.92
   0 -10  -6    1.20    0.92
   0  10  -6    0.17    0.66
   0  10  -6    1.17    0.99
   0  10   6    1.18    1.04
   0  10   6    0.00    1.02
  -1 -10  -6    0.34    0.93
  -1  10  -6   -0.41    0.99
  -1  10  -6   -0.06    0.62
   1  10   6   -0.31    0.97
   1  10   6    0.29    1.04
  -2 -10  -6    1.09    1.26
   2  10   6   -1.22    1.04
  -2  10  -6    1.86    0.79
   2  10   6    1.08    1.15
  -2  10  -6    2.67    1.52
  -3 -10  -6   -0.19    1.39
  -3  10  -6    0.30    0.69
  -3  10  -6   -1.72    0.99
   3  10   6    1.88    1.16
  -4 -10  -6    1.55    1.54
   4  10   6    0.76    1.16
  -4  10  -6   -1.75    1.42
  -4  10  -6    1.12    1.06
  -4  10  -6   -1.65    0.75
  -5 -10  -6    0.00    0.90
  -5 -10  -6   -0.53    1.63
  -5  10  -6   -0.28    0.89
   5  10   6    0.86    1.17
  -5  10  -6   -0.88    0.71
  -5  10  -6   -1.38    1.43
  -5  10  -6    0.17    0.92
   4  11  -6    0.69    0.78
   3 -11  -6   -2.69    1.79
   3  11  -6   -0.39    0.74
  -3  11   6    0.17    1.07
   3  11  -6    1.18    0.90
   2 -11  -6    1.41    1.46
   2  11  -6    0.07    0.67
   2  11  -6    2.10    0.95
  -2  11   6    2.22    1.19
   1 -11  -6    1.10    1.43
  -1  11   6   -0.46    1.11
   1  11  -6    1.96    1.01
   1  11  -6    0.09    0.59
   0 -11  -6    0.80    1.25
   0  11   6    1.19    1.23
   0  11  -6    0.67    0.65
   0  11  -6    1.36    1.08
  -1 -11  -6    2.69    1.50
   1  11   6    2.60    1.28
  -1  11  -6    0.01    0.76
  -1  11  -6    2.08    1.25
  -2 -11  -6    0.11    1.73
  -2  11  -6    1.74    1.39
  -2  11  -6    0.81    0.68
   2  11   6   -3.94    1.45
  12   0  -7   -0.65    0.88
 -12   0   7   -0.22    0.42
 -11   0   7    0.07    0.37
  11   0  -7   -0.97    0.86
 -10   0   7    0.38    0.39
  10   0  -7   -0.98    0.83
   9   0  -7   -0.16    0.89
  -9   0   7   -0.02    0.36
   8   0  -7   -0.16    0.78
  -8   0   7   -0.13    0.35
  -7   0   7    0.00    0.39
   7   0  -7   -0.51    0.71
   6   0  -7    0.53    0.55
  -6   0   7   -0.39    0.40
   5   0  -7    0.22    0.46
   5   0  -7    0.12    0.54
  -4   0   7   -0.14    0.49
   4   0  -7   -0.44    0.53
   4   0  -7    0.03    0.56
  -3   0   7    0.12    0.53
   3   0  -7   -1.03    0.75
   3   0  -7    0.45    0.64
  -2   0   7    0.50    0.64
   2   0  -7   -0.53    0.61
   2   0  -7    0.02    0.33
   1   0  -7   -0.58    0.44
  -1   0   7    1.37    0.59
   0   0  -7    1.30    0.57
   0   0   7    1.28    0.96
   1   0   7    0.84    0.96
  -1   0  -7   -0.16    0.41
  -2   0  -7    0.04    0.52
   2   0   7    0.49    1.30
  -2   0  -7   -0.06    0.30
  -3   0  -7   -0.34    0.46
   3   0   7   -1.57    1.96
  -3   0  -7   -0.14    0.40
   4   0   7    0.30    2.65
  -4   0  -7   -0.36    0.49
  -4   0  -7   -0.35    0.48
  -5   0  -7   -0.31    0.50
  -5   0  -7    0.37    0.55
  -6   0  -7    0.30    0.48
  -6   0  -7   -0.41    0.54
  -7   0  -7   -0.57    0.62
  -7   0  -7   -0.02    0.62
  -8   0  -7   -0.03    0.64
  -8   0  -7   -0.78    0.59
  -9   0  -7   -0.50    0.70
  -9   0  -7   -0.64    0.54
 -10   0  -7   -0.20    0.59
 -10   0  -7   -0.59    0.46
 -11   0  -7    0.47    0.59
 -11   0  -7    0.23    0.48
 -12  -1   7   -0.19    0.38
  12  -1  -7   -0.73    0.96
 -12   1   7   -0.54    0.75
  12   1  -7    0.08    0.93
 -11  -1   7    0.27    0.38
  11  -1  -7   -0.91    0.99
 -11   1   7    0.06    0.41
  11   1  -7    0.25    0.86
 -10  -1   7    0.68    1.25
  10  -1  -7    0.11    0.91
 -10   1   7    0.43    0.44
  10   1  -7    0.46    0.88
   9  -1  -7   -1.11    0.83
  -9  -1   7   -0.93    1.18
  -9   1   7    0.12    0.75
   8  -1  -7    4.26    1.18
  -8  -1   7    4.15    1.37
  -8   1   7    1.69    1.68
   8   1  -7    3.06    1.10
   7  -1  -7   -0.43    0.75
  -7  -1   7    1.00    1.12
  -7   1   7   -0.94    1.14
  -7   1   7    0.29    0.38
   7   1  -7    0.03    0.73
   6  -1  -7   -0.03    0.55
  -6  -1   7    0.67    1.20
   6   1  -7   -0.03    0.53
  -6   1   7    0.27    0.42
   5  -1  -7    5.13    1.53
  -5  -1   7   11.81    2.00
   5   1  -7    6.53    1.50
   5   1  -7    6.29    1.52
   4  -1  -7    0.34    0.50
  -4  -1   7   -0.99    1.30
   4  -1  -7   -0.06    0.58
  -4   1   7   -0.08    0.63
   4   1  -7   -0.09    0.56
   4   1  -7   -0.15    0.59
  -3  -1   7    4.14    1.64
   3  -1  -7    1.70    0.71
   3  -1  -7    1.68    0.74
   3   1  -7    2.22    0.76
  -3   1   7    0.26    0.72
   3   1  -7    1.96    0.76
   2  -1  -7    0.69    0.42
   2  -1  -7    1.58    0.60
   2   1  -7    0.81    0.63
  -2   1   7    0.80    0.99
   1  -1  -7    1.73    0.57
   1  -1  -7    3.08    0.72
  -1  -1   7    0.34    0.78
   1   1  -7    2.13    0.65
  -1   1   7    2.17    0.98
   0  -1  -7   20.14    4.33
   0  -1   7   20.22    4.46
   0  -1  -7   21.52    4.36
   0   1   7   17.72    4.42
   0   1  -7   18.49    4.34
  -1  -1  -7   -0.25    0.50
   1  -1   7    1.87    1.69
   1   1   7    0.95    0.82
  -1   1  -7    0.82    0.46
  -1   1  -7    0.76    0.59
   2  -1   7   13.03    3.16
  -2  -1  -7    9.25    2.32
  -2   1  -7    8.84    2.47
  -2   1  -7   11.46    2.35
   2   1   7   11.38    2.53
  -2   1  -7    9.95    2.32
  -3  -1  -7   13.31    3.31
  -3  -1  -7   13.60    3.33
   3   1   7   20.28    3.63
  -3   1  -7   15.60    3.34
  -3   1  -7   16.32    3.33
  -4  -1  -7    7.81    2.21
  -4  -1  -7   10.48    2.22
   4   1   7   10.16    2.84
  -4   1  -7    9.98    2.22
  -5  -1  -7    0.44    0.56
  -5  -1  -7    0.89    0.66
  -5   1  -7    1.04    0.58
   5   1   7    4.72    2.06
  -5   1  -7    0.62    0.52
  -6  -1  -7    3.82    1.24
  -6  -1  -7    7.23    1.33
   6   1   7   10.21    2.90
  -6   1  -7    4.25    1.24
  -6   1  -7    5.02    1.25
  -7  -1  -7    0.66    0.72
  -7  -1  -7    0.25    0.64
  -7   1  -7    0.46    0.65
  -7   1  -7   -0.23    0.54
   7   1   7   10.81    3.71
  -8  -1  -7    1.48    0.76
  -8  -1  -7    3.08    0.86
  -8   1  -7    1.52    0.82
  -8   1  -7    1.29    0.72
  -9  -1  -7    0.50    0.61
  -9  -1  -7   -0.15    0.63
  -9   1  -7   -0.12    0.54
  -9   1  -7   -0.27    0.71
 -10  -1  -7    0.70    0.63
 -10  -1  -7    0.75    0.57
 -10   1  -7    0.42    0.50
 -10   1  -7   -0.42    0.71
  12  -2  -7   -1.23    1.08
 -12  -2   7   -0.33    0.39
 -12   2   7   -0.66    0.70
  12   2  -7   -0.55    0.92
 -11  -2   7    7.27    1.80
  11  -2  -7    4.15    1.48
 -11   2   7    3.61    1.31
  11   2  -7    5.79    1.44
  10  -2  -7    3.80    1.40
 -10  -2   7    4.66    1.58
 -10   2   7    1.76    2.28
   9  -2  -7    0.63    1.05
  -9  -2   7    0.87    1.21
  -9   2   7   -0.99    1.26
   9   2  -7   -0.18    1.04
   8  -2  -7   10.42    2.44
  -8  -2   7   11.23    2.58
   8   2  -7   11.98    2.40
  -8   2   7    6.28    2.47
   7  -2  -7    0.31    0.67
  -7  -2   7    0.93    1.18
  -7   2   7    1.69    1.11
   7   2  -7   -0.31    0.72
  -7   2   7    0.26    0.44
   6  -2  -7   -0.31    0.62
   6   2  -7   -0.14    0.51
  -6   2   7   -0.03    0.49
  -5  -2   7    1.51    1.22
   5  -2  -7   -0.03    0.59
  -5   2   7   -0.15    0.52
   5   2  -7    0.10    0.54
   5   2  -7    0.44    0.50
   4  -2  -7    4.58    1.07
  -4  -2   7    6.69    1.58
   4  -2  -7    3.45    1.13
   4   2  -7    4.14    1.13
  -4   2   7    4.43    2.27
   4   2  -7   -1.28    3.33
   3  -2  -7    3.49    1.26
   3  -2  -7    5.17    1.36
  -3  -2   7    9.62    1.91
  -3   2   7    3.49    1.55
   3   2  -7    7.24    1.32
   2  -2  -7    7.33    2.07
  -2  -2   7   16.49    2.69
   2  -2  -7   11.02    2.10
  -2   2   7    4.69    2.23
   2   2  -7   12.56    2.14
  -1  -2   7   15.84    2.70
   1  -2  -7    4.76    1.32
   1   2  -7    7.12    1.33
  -1   2   7    3.45    1.49
   0  -2  -7   13.85    2.97
   0   2  -7   12.52    2.96
   0   2   7   13.62    3.07
  -1  -2  -7   10.71    2.81
  -1  -2  -7   13.43    2.79
  -1   2  -7   13.05    2.80
   1   2   7   13.71    2.92
  -1   2  -7   11.27    2.87
  -1   2  -7   12.34    2.79
  -2  -2  -7    0.06    0.43
  -2  -2  -7    0.01    0.44
  -2   2  -7   -0.52    0.36
  -2   2  -7    0.26    0.49
   2   2   7    0.81    0.96
  -2   2  -7   -1.70    0.77
  -3  -2  -7    3.53    0.99
  -3   2  -7    4.89    0.96
   3   2   7    2.66    1.42
  -3   2  -7    3.14    0.97
  -4  -2  -7    0.10    0.34
  -4  -2  -7   -0.88    0.61
   4   2   7   -1.32    1.38
  -4   2  -7   -0.65    0.42
  -4   2  -7   -0.05    0.53
  -5  -2  -7    5.87    1.32
  -5  -2  -7    3.00    1.20
   5   2   7    7.41    2.09
  -5   2  -7    4.86    1.23
  -5   2  -7    7.10    1.26
  -6  -2  -7    2.70    0.82
  -6  -2  -7    3.69    0.98
  -6   2  -7    2.04    0.74
  -6   2  -7    2.48    0.82
  -7  -2  -7    0.08    0.77
  -7  -2  -7    0.68    0.50
  -7   2  -7    0.35    0.63
  -7   2  -7    0.31    0.50
   7   2   7   -0.81    2.55
  -8  -2  -7    0.06    0.70
  -8  -2  -7    0.24    0.57
   8   2   7   -0.28    3.06
  -8   2  -7    0.54    0.67
  -8   2  -7    0.61    0.55
  -9  -2  -7    0.07    0.71
  -9  -2  -7    1.15    0.63
  -9   2  -7    0.14    0.47
  -9   2  -7    0.15    0.66
 -10  -2  -7    2.33    0.82
 -10  -2  -7    0.97    0.74
 -10   2  -7    2.26    0.86
 -10   2  -7    2.78    0.92
 -12  -3   7    8.45    2.29
  12  -3  -7    6.57    2.01
  12   3  -7    8.42    1.97
 -12   3   7    7.38    2.55
 -11  -3   7    2.86    1.34
  11  -3  -7    0.83    0.96
 -11   3   7    1.29    1.45
  11   3  -7    2.03    0.99
 -11   3   7    1.10    0.80
 -10  -3   7    0.64    2.38
  10  -3  -7   -1.74    1.56
 -10   3   7    1.37    0.75
  10   3  -7    0.77    0.99
 -10   3   7    0.80    1.82
  -9  -3   7   -1.23    1.81
  -9   3   7    0.92    0.71
   9   3  -7   -0.09    0.94
  -8  -3   7    4.29    1.41
   8  -3  -7    1.45    1.06
  -8   3   7    0.82    1.24
   8   3  -7    4.84    1.10
  -8   3   7    3.08    1.01
   7  -3  -7    4.45    1.35
  -7  -3   7    5.06    1.70
  -7   3   7    4.56    1.42
   7   3  -7    6.14    1.32
  -7   3   7    3.85    1.32
   6  -3  -7    0.18    0.69
  -6  -3   7   -1.07    2.18
  -6   3   7   -0.41    0.80
   6   3  -7   -0.40    0.49
  -5  -3   7   -0.11    1.30
   5  -3  -7    0.42    0.66
  -5   3   7    0.73    0.90
   4  -3  -7    0.26    0.69
  -4  -3   7    0.90    1.32
   4   3  -7    0.84    0.61
  -4   3   7    0.31    0.99
   3  -3  -7    4.72    1.23
  -3  -3   7    6.08    1.72
   3  -3  -7    3.63    1.06
   3   3  -7    5.30    1.09
  -3   3   7    0.81    1.36
   2  -3  -7    1.39    0.61
  -2  -3   7    5.13    1.90
   2  -3  -7    2.31    0.68
  -2   3   7    1.92    1.22
   2   3  -7    3.13    0.74
   1  -3  -7   19.12    3.52
   1  -3  -7   14.66    3.48
   1   3  -7   15.40    3.47
  -1   3   7   12.79    3.71
   0  -3  -7    6.65    1.40
   0  -3  -7    4.15    1.37
   0   3  -7    6.51    1.56
   0   3  -7    6.24    1.34
   0   3   7    7.30    1.63
  -1  -3  -7    0.03    0.40
  -1  -3  -7    0.31    0.45
   1   3   7   -0.51    0.85
  -1   3  -7    0.48    0.35
  -1   3  -7    0.22    0.68
  -1   3  -7   -0.31    0.81
  -2  -3  -7    1.77    0.74
  -2  -3  -7    2.72    0.80
  -2   3  -7    2.71    0.82
  -2   3  -7    3.31    0.72
   2   3   7    3.49    1.12
  -3  -3  -7    2.51    0.77
  -3  -3  -7    1.73    0.70
  -3   3  -7    2.32    0.60
  -3   3  -7    1.50    0.65
   3   3   7    2.93    1.16
  -3   3  -7   -0.10    0.87
  -4  -3  -7   -0.22    0.69
  -4  -3  -7    0.55    0.59
  -4   3  -7    0.80    0.74
  -4   3  -7   -0.32    0.46
  -4   3  -7    0.36    0.52
  -5  -3  -7    0.36    0.62
  -5   3  -7    0.68    0.59
  -5   3  -7    0.82    0.55
  -5   3  -7    0.74    0.94
   5   3   7    3.09    1.46
  -6  -3  -7    1.99    0.89
  -6  -3  -7    2.82    0.92
  -6   3  -7    1.61    0.79
   6   3   7    6.88    1.93
  -6   3  -7    2.83    1.16
  -7  -3  -7    0.15    0.39
  -7  -3  -7    0.17    0.74
  -7   3  -7    0.57    1.00
   7   3   7    1.37    2.05
  -7   3  -7    0.07    0.76
  -7   3  -7    0.10    0.67
  -8  -3  -7    2.04    0.90
  -8  -3  -7    1.27    0.69
  -8   3  -7    2.49    0.83
  -8   3  -7    3.23    1.14
   8   3   7    5.93    2.63
  -8   3  -7    2.24    0.85
  -9  -3  -7    0.30    0.68
  -9  -3  -7   -0.71    0.85
   9   3   7    4.92    4.36
  -9   3  -7    0.00    0.68
  -9   3  -7    0.45    0.66
 -10  -3  -7    1.00    0.91
 -10  -3  -7    0.91    0.74
  10   3   7    7.44    3.61
 -10   3  -7    0.83    0.70
 -10   3  -7    1.18    0.85
 -11  -4   7    0.02    1.46
  11  -4  -7    2.27    1.10
  11   4  -7    1.93    1.03
 -11   4   7   -1.87    1.47
 -10  -4   7    1.20    1.45
  10  -4  -7    2.34    1.19
  10   4  -7    2.83    1.14
 -10   4   7    1.92    0.90
 -10   4   7    3.97    1.42
   9  -4  -7    2.89    1.15
  -9  -4   7    1.29    1.77
  -9   4   7    1.95    1.39
   9   4  -7    3.66    1.23
  -9   4   7   -1.16    1.93
  -8  -4   7   -2.42    1.32
   8  -4  -7    0.40    0.94
  -8   4   7   -0.26    0.86
  -8   4   7    0.98    1.28
  -7  -4   7    0.02    1.42
   7  -4  -7    0.48    0.83
  -7   4   7    0.07    0.69
  -7   4   7   -1.01    0.93
   6  -4  -7    0.45    0.83
  -6  -4   7    2.76    2.59
  -6   4   7    0.58    0.79
   5  -4  -7    0.27    0.77
  -5  -4   7    3.40    1.44
  -5   4   7    0.28    0.88
  -4  -4   7    9.74    2.31
   4  -4  -7    7.61    1.87
   4   4  -7    7.22    1.80
  -4   4   7    7.22    1.99
   3  -4  -7    0.99    0.88
  -3  -4   7    2.62    1.74
   3   4  -7    0.91    0.57
  -3   4   7   -0.08    1.07
   2  -4  -7    6.04    1.62
   2  -4  -7    6.71    1.59
  -2   4   7   10.64    1.90
   1  -4  -7    1.60    0.58
   1  -4  -7    0.68    0.52
  -1   4   7    1.35    1.08
   1   4  -7    0.47    0.56
   1   4  -7    0.88    0.98
   1   4  -7    0.78    0.46
   0  -4  -7    5.28    1.52
   0  -4  -7    7.71    1.53
   0   4   7    7.71    1.73
   0   4  -7    6.79    1.48
   0   4  -7    5.49    1.53
   0   4  -7    5.86    1.64
  -1  -4  -7    0.80    0.52
  -1  -4  -7    1.12    0.51
  -1   4  -7    0.45    1.17
  -1   4  -7    0.96    0.45
  -1   4  -7    1.06    0.44
   1   4   7    0.56    0.93
  -2  -4  -7    2.00    0.62
  -2  -4  -7    2.29    0.63
  -2   4  -7    1.04    0.49
  -2   4  -7    0.92    0.54
  -2   4  -7   -0.68    0.79
   2   4   7    1.99    0.94
  -3  -4  -7    0.76    0.66
  -3  -4  -7   -0.41    0.51
   3   4   7   -0.40    0.87
  -3   4  -7    1.86    0.72
  -3   4  -7    1.33    0.48
  -3   4  -7    0.08    0.67
  -3   4  -7    0.17    0.58
  -4  -4  -7    0.90    0.59
  -4  -4  -7    0.48    0.76
  -4   4  -7    0.94    0.76
   4   4   7    2.16    1.06
  -4   4  -7    0.95    0.63
  -4   4  -7   -1.22    1.53
  -4   4  -7    0.91    0.51
  -5  -4  -7    1.60    0.62
  -5  -4  -7    2.68    0.87
  -5   4  -7    1.03    0.68
  -5   4  -7    1.25    0.62
   5   4   7    1.29    1.28
  -5   4  -7    0.50    0.82
  -6  -4  -7    0.55    0.61
  -6   4  -7   -0.52    0.57
   6   4   7   -2.26    1.33
  -6   4  -7   -0.57    0.67
  -6   4  -7    0.14    0.97
  -7  -4  -7   -0.13    0.61
  -7   4  -7    0.35    0.98
  -7   4  -7   -0.11    0.67
   7   4   7    1.70    1.71
  -8  -4  -7   -0.54    0.70
  -8   4  -7   -1.14    0.67
  -8   4  -7   -0.06    0.76
   8   4   7    2.30    2.30
  -8   4  -7    0.35    0.96
  -9  -4  -7    1.00    0.81
   9   4   7    7.98    2.49
  -9   4  -7    1.78    0.92
  -9   4  -7    2.09    0.94
  -9   4  -7    0.74    1.01
 -10  -4  -7    0.02    0.69
  10   4   7    4.13    3.29
 -10   4  -7    0.66    0.77
 -10   4  -7    0.42    0.73
  11  -5  -7    0.50    1.22
 -11  -5   7   -1.39    1.45
  11   5  -7    1.14    0.87
  11   5  -7    1.40    1.56
 -11   5   7   -1.04    1.38
  10  -5  -7    1.33    1.17
 -10  -5   7    2.95    1.48
 -10   5   7    2.13    1.09
  10   5  -7    1.20    0.89
 -10   5   7    2.46    1.14
  -9  -5   7    2.45    2.17
   9  -5  -7    3.29    1.69
  -9   5   7    3.40    1.45
  -9   5   7    4.35    1.19
  -8  -5   7    2.90    1.71
  -8   5   7    5.43    1.95
  -8   5   7    1.24    0.93
   7  -5  -7   -0.39    0.89
  -7  -5   7   -1.51    1.77
  -7   5   7    0.93    0.92
   6  -5  -7   -0.49    0.82
  -6  -5   7    6.43    2.38
  -6   5   7   -0.78    0.78
  -5  -5   7   21.24    4.58
   5  -5  -7   17.13    4.18
  -5   5   7   18.97    4.21
  -4  -5   7   -5.86    2.18
   4  -5  -7    3.08    0.96
   4   5  -7   -1.13    1.09
  -4   5   7    0.93    1.04
   4   5  -7   -0.05    0.46
   3  -5  -7    0.15    0.43
   3   5  -7   -0.22    1.04
  -3   5   7    0.09    1.12
   3   5  -7    1.05    0.47
   2  -5  -7   -0.02    0.41
   2   5  -7    0.13    1.06
   2   5  -7   -0.48    0.40
   2   5  -7   -0.41    0.78
  -2   5   7   -1.95    1.14
   1  -5  -7    1.15    0.58
   1  -5  -7    1.53    0.62
  -1   5   7    1.59    1.19
   1   5  -7    1.78    0.54
   1   5  -7   -0.53    1.13
   1   5  -7    0.75    0.63
   0  -5  -7    0.96    0.62
   0  -5  -7    2.97    0.67
   0   5  -7   -0.45    0.62
   0   5  -7    0.94    0.90
   0   5   7    1.66    1.09
   0   5  -7    2.64    0.58
  -1  -5  -7   10.55    2.14
  -1  -5  -7    7.53    2.11
   1   5   7    9.96    2.27
  -1   5  -7   10.93    2.11
  -1   5  -7    8.34    2.09
  -1   5  -7    8.52    2.18
  -2  -5  -7    0.77    0.54
  -2  -5  -7    0.68    0.60
  -2   5  -7    0.68    0.46
  -2   5  -7   -0.18    0.48
   2   5   7    1.08    0.84
  -2   5  -7    0.57    0.74
  -2   5  -7    0.13    0.62
  -3  -5  -7    1.55    0.72
  -3  -5  -7    0.71    0.58
  -3   5  -7    0.84    0.61
  -3   5  -7   -0.99    0.74
  -3   5  -7   -0.22    0.74
   3   5   7    1.87    0.94
  -3   5  -7    2.29    0.80
  -3   5  -7    1.89    0.53
  -4  -5  -7    0.24    0.81
  -4  -5  -7   -0.99    0.47
  -4   5  -7   -0.75    0.70
  -4   5  -7   -0.65    0.57
  -4   5  -7   -0.56    0.55
   4   5   7    0.41    0.94
  -4   5  -7   -1.20    0.96
  -4   5  -7    0.78    1.05
  -5  -5  -7   -0.20    1.07
  -5  -5  -7   -0.49    0.54
  -5   5  -7   -0.10    0.65
  -5   5  -7    0.38    1.09
  -5   5  -7    0.66    1.08
   5   5   7    0.56    0.98
  -5   5  -7    0.33    0.66
  -6  -5  -7    0.51    0.62
   6   5   7    1.67    1.28
  -6   5  -7    0.85    0.68
  -6   5  -7    0.50    0.92
  -7  -5  -7    0.12    0.59
  -7   5  -7   -0.18    0.90
  -7   5  -7   -0.40    0.80
  -7   5  -7   -0.17    0.73
   7   5   7   -1.20    1.47
  -8  -5  -7    0.05    0.59
  -8   5  -7    0.10    0.92
   8   5   7    5.28    1.81
  -8   5  -7   -0.16    0.92
  -8   5  -7   -0.33    0.79
  -9  -5  -7    0.49    0.72
  -9   5  -7    1.14    0.93
  -9   5  -7   -0.24    0.73
   9   5   7    1.49    2.03
  -9   5  -7   -1.29    0.75
  10  -6  -7    2.39    1.39
 -10  -6   7    3.87    1.78
 -10   6   7    1.70    1.16
  10   6  -7    2.36    1.68
  -9  -6   7    0.33    1.86
   9  -6  -7    2.88    1.27
   9   6  -7    3.87    1.54
  -9   6   7    1.18    1.22
   8  -6  -7   -1.46    1.28
  -8  -6   7   -0.71    3.40
  -8   6   7    0.12    0.84
  -8   6   7   -0.40    1.06
   8   6  -7   -0.52    1.29
  -7  -6   7   -0.66    2.32
   7  -6  -7    0.16    1.42
  -7   6   7   -1.15    0.96
   7   6  -7   -0.73    1.26
  -7   6   7    1.11    0.88
  -6  -6   7   -3.17    2.54
   6  -6  -7    0.84    0.98
   6   6  -7   -0.97    1.21
  -6   6   7    0.04    0.99
  -5  -6   7    3.49    3.16
   5  -6  -7    2.14    1.12
   5   6  -7    0.24    1.15
  -5   6   7    0.98    1.03
   4  -6  -7    3.74    1.23
  -4   6   7    6.69    1.60
   4   6  -7   11.34    1.91
   3  -6  -7    1.02    0.56
   3   6  -7    1.35    0.74
   3   6  -7    1.35    0.57
  -3   6   7    2.08    1.27
   3   6  -7    1.75    1.09
   2  -6  -7    1.20    0.64
   2   6  -7    2.80    1.09
   2   6  -7    1.61    0.69
   2   6  -7    1.69    0.58
  -2   6   7    1.68    1.25
   1  -6  -7    0.98    0.62
  -1   6   7    1.80    1.21
   1   6  -7    0.53    0.61
   1   6  -7    1.68    0.99
   1   6  -7    0.78    0.51
   0  -6  -7    2.02    0.75
   0  -6  -7    0.57    0.64
   0   6  -7    1.35    0.91
   0   6   7    2.46    1.12
   0   6  -7    2.33    0.66
   0   6  -7    1.43    0.58
  -1  -6  -7    6.56    1.78
  -1  -6  -7    5.70    1.71
  -1   6  -7   10.11    1.74
  -1   6  -7    6.95    1.71
  -1   6  -7    7.20    1.85
   1   6   7    7.98    1.94
  -2  -6  -7    5.56    1.26
  -2  -6  -7    4.30    1.06
  -2   6  -7    4.95    1.13
  -2   6  -7    6.04    1.16
  -2   6  -7    2.58    1.16
  -2   6  -7    2.71    1.05
   2   6   7    6.33    1.37
  -3  -6  -7   -0.60    0.51
  -3  -6  -7    0.69    0.75
  -3   6  -7    0.30    0.50
   3   6   7    0.44    0.93
  -3   6  -7    1.57    0.71
  -3   6  -7    0.89    0.78
  -3   6  -7    0.48    0.72
  -3   6  -7    1.34    0.66
  -4  -6  -7    0.27    0.49
  -4  -6  -7   -0.14    1.42
   4   6   7   -0.15    0.88
  -4   6  -7    0.10    0.76
  -4   6  -7    0.22    0.96
  -4   6  -7    0.40    0.75
  -4   6  -7   -0.04    0.59
  -4   6  -7    0.72    0.61
  -5  -6  -7   -0.74    0.98
  -5  -6  -7    0.38    0.53
  -5   6  -7   -0.27    0.58
  -5   6  -7   -0.71    0.86
  -5   6  -7    0.14    0.67
  -5   6  -7   -0.22    0.91
  -5   6  -7   -0.69    0.80
  -6  -6  -7    2.12    0.78
  -6  -6  -7    2.00    1.74
  -6   6  -7    3.38    1.10
  -6   6  -7    2.70    0.98
  -6   6  -7    1.95    0.94
   6   6   7    4.11    1.37
  -6   6  -7   -0.60    2.17
  -7  -6  -7    0.83    0.58
  -7   6  -7    0.50    0.93
  -7   6  -7   -0.75    0.68
   7   6   7    0.48    1.29
  -7   6  -7    0.10    0.93
  -8  -6  -7    1.12    0.60
  -8  -6  -7    0.01    1.23
  -8   6  -7    0.44    0.91
  -8   6  -7    1.27    0.76
  -8   6  -7    0.22    0.72
   8   6   7    1.57    1.41
  -9  -6  -7   -0.44    0.60
   9   6   7    0.11    1.91
  -9   6  -7    0.27    0.82
  -9   6  -7    0.46    0.68
  -9   6  -7    0.68    1.27
   9  -7  -7   -0.82    1.55
  -9  -7   7   -1.11    2.04
  -9   7   7   -0.30    1.06
   9   7  -7    1.03    1.36
  -8  -7   7   -7.79    2.88
   8  -7  -7    0.04    1.38
   8   7  -7    0.19    1.21
  -8   7   7   -0.31    1.01
   7  -7  -7   -1.12    1.99
  -7  -7   7   -4.05    3.24
   7   7  -7    2.22    1.18
  -7   7   7    1.42    0.90
  -7   7   7    1.37    0.95
   6  -7  -7    0.42    1.62
   6   7  -7    1.04    1.07
  -6   7   7    1.16    1.17
   5  -7  -7   -0.11    0.49
  -5   7   7    0.64    0.92
   5   7  -7    0.02    1.10
   4  -7  -7    0.98    0.58
   4   7  -7    0.78    0.83
   4   7  -7    2.08    1.12
   3  -7  -7    0.74    0.56
   3   7  -7    1.78    0.66
   3   7  -7    0.12    1.06
  -3   7   7    1.13    1.17
   2  -7  -7    0.71    0.59
   2   7  -7   -0.21    1.04
   2   7  -7    0.60    0.54
  -2   7   7    0.61    1.15
   2   7  -7    0.34    0.63
  -2   7   7    2.22    1.26
   1  -7  -7    0.52    0.63
   1   7  -7    2.61    1.34
   1   7  -7    0.77    0.53
   1   7  -7    0.55    0.61
  -1   7   7    1.75    1.20
   0  -7  -7    1.61    0.73
   0   7   7    0.72    1.15
   0   7  -7    1.30    1.51
   0   7  -7    1.49    0.67
   0   7  -7    1.03    0.66
  -1  -7  -7    0.98    0.73
  -1  -7  -7    1.27    0.58
  -1   7  -7    1.79    0.68
   1   7   7    1.32    1.12
  -1   7  -7    0.48    0.64
  -1   7  -7    0.49    1.01
  -2  -7  -7    2.93    0.91
  -2  -7  -7    0.84    0.68
  -2   7  -7    1.05    0.52
   2   7   7    1.68    1.25
  -2   7  -7    1.53    1.26
  -2   7  -7    2.66    0.82
  -2   7  -7    2.39    0.80
  -3  -7  -7   -0.05    0.59
  -3  -7  -7    2.06    1.27
  -3   7  -7    1.77    0.71
  -3   7  -7    0.40    0.77
   3   7   7    1.45    1.39
  -3   7  -7    2.21    1.02
  -3   7  -7    0.24    0.80
  -4  -7  -7   -0.08    0.55
  -4  -7  -7    0.50    1.17
   4   7   7    0.63    1.02
  -4   7  -7    0.78    0.96
  -4   7  -7   -0.16    0.85
  -4   7  -7    0.96    1.01
  -4   7  -7    0.40    0.53
  -5  -7  -7    0.54    0.54
  -5  -7  -7    2.21    1.28
   5   7   7    0.56    1.20
  -5   7  -7    0.49    0.66
  -5   7  -7    0.65    0.65
  -5   7  -7    0.84    0.99
  -5   7  -7    0.34    1.02
  -5   7  -7   -0.56    0.94
  -6  -7  -7    0.16    1.18
  -6  -7  -7   -0.10    0.57
  -6   7  -7   -0.54    0.66
  -6   7  -7   -0.18    0.94
  -6   7  -7   -0.67    1.16
  -6   7  -7   -0.40    0.67
   6   7   7   -1.99    1.10
  -7  -7  -7   -0.37    0.57
   7   7   7    1.45    1.17
  -7   7  -7   -0.38    0.94
  -7   7  -7    0.15    0.78
  -7   7  -7    1.09    0.66
  -8  -7  -7    0.89    1.42
  -8  -7  -7    0.20    0.63
  -8   7  -7   -0.16    0.97
  -8   7  -7    2.35    0.73
   8   7   7    2.65    1.36
  -8   7  -7    0.66    0.76
   8  -8  -7   -0.03    1.98
  -8  -8   7   -0.56    3.31
  -8   8   7   -0.30    1.01
   8   8  -7   -1.45    1.18
   7  -8  -7    1.57    0.87
  -7   8   7    1.77    1.00
   7   8  -7    0.75    1.12
   6  -8  -7    0.79    0.83
   6   8  -7    2.20    0.88
   6   8  -7    1.60    1.10
   5  -8  -7    0.68    0.68
   5   8  -7   -0.50    0.76
  -5   8   7    1.73    0.93
   5   8  -7    0.79    0.97
   4  -8  -7    2.69    0.95
   4   8  -7    3.52    1.27
   4   8  -7    2.37    0.89
   3   8  -7   -0.06    1.05
  -3   8   7    1.75    1.09
  -3   8   7    0.54    1.05
   3   8  -7   -0.44    0.77
  -2   8   7    0.07    1.25
   2   8  -7    0.74    1.14
  -2   8   7    0.90    1.10
   2   8  -7    0.91    0.66
   1   8  -7    0.04    0.66
  -1   8   7   -1.02    1.48
  -1   8   7   -0.32    1.17
   0   8  -7    2.14    1.64
   0   8   7   -0.67    1.18
   0   8  -7   -0.97    0.65
  -1  -8  -7    0.82    0.76
   1   8   7   -1.26    1.11
  -1   8  -7   -0.75    0.64
  -2  -8  -7    4.47    1.16
  -2  -8  -7    3.11    1.38
  -2   8  -7    4.56    1.46
  -2   8  -7    4.13    1.18
   2   8   7    5.54    1.95
  -2   8  -7    3.69    1.19
  -3  -8  -7    1.58    1.90
  -3  -8  -7   -0.08    0.65
  -3   8  -7   -0.76    0.95
  -3   8  -7    0.84    0.77
  -3   8  -7   -0.36    0.48
   3   8   7    1.26    1.11
  -3   8  -7   -1.47    1.04
  -4  -8  -7    1.49    0.74
  -4  -8  -7    3.56    1.45
  -4   8  -7    2.71    0.84
   4   8   7    2.33    1.25
  -4   8  -7    1.19    0.64
  -4   8  -7    0.66    1.04
  -4   8  -7    0.61    0.92
  -4   8  -7    4.27    1.05
  -5  -8  -7   -0.67    0.55
  -5  -8  -7    1.71    1.36
  -5   8  -7   -0.32    1.00
  -5   8  -7    0.50    0.92
  -5   8  -7    0.70    0.63
   5   8   7   -0.46    1.15
  -5   8  -7   -0.06    0.54
  -5   8  -7   -0.58    0.91
  -6  -8  -7   -0.14    1.31
  -6  -8  -7    0.03    0.62
  -6   8  -7   -0.47    0.61
  -6   8  -7    0.69    1.01
  -6   8  -7   -1.24    1.09
   6   8   7   -0.79    1.05
  -6   8  -7   -0.37    0.66
  -7  -8  -7   -1.06    0.56
   7   8   7    0.14    1.16
  -7   8  -7    0.14    0.72
  -7   8  -7   -0.80    0.59
  -7   8  -7   -0.80    1.07
   7  -9  -7    0.28    1.08
   7   9  -7    0.41    1.04
  -7   9   7   -0.76    0.97
   7   9  -7   -1.31    0.76
   6  -9  -7   -0.14    0.95
   6   9  -7   -0.33    0.64
   6   9  -7    2.41    1.00
  -6   9   7    0.28    0.93
   5  -9  -7    1.50    0.96
   5   9  -7    1.68    1.06
   5   9  -7    0.96    0.70
   4  -9  -7    0.80    0.76
   4   9  -7    0.58    0.64
   4   9  -7    0.97    1.05
   3  -9  -7    1.57    0.86
  -3   9   7   -0.24    1.03
  -3   9   7    4.00    1.27
   3   9  -7    1.16    0.74
   3   9  -7    0.95    1.10
   2  -9  -7    1.79    1.65
   2   9  -7    1.45    1.16
   2   9  -7    1.34    0.69
  -2   9   7    0.89    1.06
  -1   9   7   -1.31    1.57
  -1   9   7    0.17    1.13
   1   9  -7    0.14    1.05
   1   9  -7   -1.05    0.63
   0  -9  -7    0.11    0.89
   0   9   7    1.98    1.26
   0   9  -7   -0.04    0.92
   0   9  -7   -0.05    0.62
  -1  -9  -7    0.91    0.86
  -1   9  -7   -0.26    0.97
  -1   9  -7    0.07    0.73
  -1   9  -7   -0.52    0.69
   1   9   7   -1.11    1.21
  -2  -9  -7    1.11    1.06
  -2   9  -7   -0.30    0.97
  -2   9  -7    1.01    0.69
   2   9   7   -0.25    1.22
  -2   9  -7    0.16    0.74
  -3  -9  -7    2.58    1.48
  -3   9  -7    2.07    0.97
  -3   9  -7    2.70    0.89
  -3   9  -7    3.30    1.19
   3   9   7    1.76    1.39
  -4  -9  -7    2.04    0.96
  -4  -9  -7    3.88    1.64
  -4   9  -7    4.25    0.88
   4   9   7    4.21    1.46
  -4   9  -7   -0.91    1.45
  -4   9  -7    4.09    1.20
  -4   9  -7    0.88    1.07
  -5  -9  -7   -0.61    0.67
  -5  -9  -7   -0.53    1.41
   5   9   7    0.09    1.16
  -5   9  -7   -1.07    0.92
  -5   9  -7    0.34    0.55
  -5   9  -7   -1.27    1.23
  -5   9  -7    0.29    0.94
  -5   9  -7   -0.38    0.48
   5 -10  -7    1.94    1.30
  -5  10   7    0.93    0.98
   5  10  -7    2.26    1.09
   5  10  -7    0.71    0.69
   4 -10  -7   -1.31    1.20
   4  10  -7   -0.01    0.98
   4  10  -7   -0.05    0.64
   3 -10  -7    0.68    1.06
   3  10  -7    0.21    1.08
   3  10  -7    0.51    0.58
   2 -10  -7    4.17    1.22
  -2  10   7    4.11    1.84
   2  10  -7    1.92    0.92
   2  10  -7    3.50    1.21
   1 -10  -7    0.76    0.92
   1  10  -7    0.39    1.05
  -1  10   7    0.55    1.42
  -1  10   7   -1.37    2.25
   1  10  -7    1.60    0.70
   0 -10  -7   -0.06    1.02
   0  10  -7    1.67    0.76
   0  10   7    2.34    1.20
   0  10  -7    2.28    1.16
  -1 -10  -7    2.45    1.15
   1  10   7    3.23    1.29
  -1  10  -7    1.27    0.86
  -1  10  -7    1.94    1.39
  -2 -10  -7   -1.08    1.20
   2  10   7   -0.11    1.14
  -2  10  -7    0.23    0.71
  -2  10  -7    1.46    1.09
  -3 -10  -7    1.85    1.47
   3  10   7   -0.17    1.25
  -3  10  -7   -1.00    1.01
  -3  10  -7   -0.49    0.81
 -12   0   8    0.07    0.47
  12   0  -8    0.07    0.71
 -11   0   8    1.54    0.69
  11   0  -8    2.25    0.85
 -10   0   8    0.66    0.51
  10   0  -8    0.18    0.73
   9   0  -8    0.55    0.70
  -9   0   8    0.62    0.51
  -8   0   8    1.11    0.54
  -7   0   8   -0.37    0.47
   7   0  -8    1.27    0.65
   6   0  -8    2.43    0.74
  -6   0   8    1.27    0.70
   5   0  -8   17.40    3.95
   5   0  -8   18.23    3.97
   4   0  -8   32.49    6.89
   4   0  -8   30.05    6.87
  -3   0   8    8.41    2.39
   3   0  -8   10.45    2.23
  -2   0   8    6.98    1.77
   1   0  -8   54.95   11.45
  -1   0   8   48.18   11.55
   0   0  -8    1.53    0.59
   0   0   8    0.26    1.21
   1   0   8   -0.87    1.58
  -1   0  -8    0.05    0.49
  -2   0  -8    7.05    1.60
   2   0   8    4.66    2.71
   3   0   8    0.89    2.82
  -3   0  -8    3.08    0.97
  -3   0  -8    2.56    0.81
  -4   0  -8    3.28    0.93
  -4   0  -8    3.31    0.90
  -5   0  -8    5.32    1.26
  -5   0  -8    4.58    1.29
  -6   0  -8    1.21    0.65
  -6   0  -8    0.61    0.54
  -7   0  -8    3.55    0.86
  -7   0  -8    2.09    0.79
  -8   0  -8   -0.14    0.56
  -8   0  -8    0.27    0.66
  -9   0  -8    1.38    0.63
  -9   0  -8    1.24    0.67
 -10   0  -8    0.67    0.68
 -10   0  -8    1.11    0.52
  12  -1  -8   -0.61    0.78
 -12  -1   8    0.32    0.54
  12   1  -8    1.10    0.71
 -12   1   8    0.13    0.78
  11  -1  -8   -0.55    0.72
 -11  -1   8    0.18    0.47
 -11   1   8   -1.62    0.77
  11   1  -8    0.02    0.69
  10  -1  -8   -0.25    0.74
 -10  -1   8    0.06    0.44
  10   1  -8    0.75    0.71
 -10   1   8   -0.02    0.48
   9  -1  -8    0.85    0.76
  -9  -1   8   -0.08    0.45
  -9   1   8    1.04    0.51
   9   1  -8    0.41    0.72
   8  -1  -8    5.61    1.14
  -8  -1   8    1.92    0.79
  -8   1   8    2.82    0.86
   7  -1  -8    2.74    0.82
  -7  -1   8    2.44    1.56
  -7   1   8    1.07    0.72
   7   1  -8    2.68    0.82
  -6  -1   8   -0.48    1.62
   6  -1  -8    0.18    0.61
   6   1  -8   -0.41    0.55
  -6   1   8   -0.32    0.57
   5  -1  -8   12.12    2.89
   5   1  -8   13.63    2.87
   5   1  -8   12.45    2.88
   4  -1  -8    9.52    1.93
   4  -1  -8    8.01    1.86
  -4   1   8    6.24    1.97
   3  -1  -8   -0.09    0.34
   3  -1  -8   -0.29    0.61
  -3  -1   8   -0.43    0.69
  -3   1   8   -0.52    2.11
   3   1  -8    0.07    0.66
   2  -1  -8    0.11    0.93
  -2  -1   8   -0.63    0.73
   2  -1  -8    0.64    0.40
  -2   1   8   -0.09    1.10
   2   1  -8    0.52    0.58
   1  -1  -8    0.01    0.41
   1  -1  -8   -0.30    0.45
   1   1  -8   -0.19    0.47
  -1   1   8    0.57    1.06
   0  -1   8    7.05    2.32
   0  -1  -8    8.50    1.70
   0   1   8    4.36    1.88
   0   1  -8    7.38    1.67
  -1  -1  -8    1.53    0.58
   1  -1   8    0.02    2.22
  -1   1  -8    1.52    0.53
  -1   1  -8   -0.07    0.98
   1   1   8    1.70    1.05
  -2  -1  -8   16.48    3.42
  -2   1  -8   14.14    3.40
   2   1   8   15.66    3.66
  -3  -1  -8    0.74    0.49
  -3   1  -8    0.31    0.43
   3   1   8    0.79    1.81
  -3   1  -8    0.25    0.42
  -4  -1  -8    0.70    0.55
  -4  -1  -8    1.07    0.73
   4   1   8    2.27    2.21
  -4   1  -8    1.28    0.60
  -4   1  -8    0.90    0.60
  -5  -1  -8   -0.47    0.60
  -5  -1  -8    0.45    0.42
   5   1   8   -0.78    2.72
  -5   1  -8    0.69    0.81
  -6  -1  -8    0.33    0.68
  -6  -1  -8    0.51    0.51
  -6   1  -8    0.67    0.59
  -6   1  -8    0.69    0.53
  -7  -1  -8    0.81    0.67
  -7  -1  -8    0.42    0.56
  -7   1  -8    0.64    0.63
  -7   1  -8    0.75    0.55
  -8  -1  -8    0.05    0.60
  -8  -1  -8    0.56    0.67
  -8   1  -8    0.48    0.49
  -8   1  -8   -0.06    0.57
  -9  -1  -8   -0.01    0.60
  -9  -1  -8    0.36    0.62
  -9   1  -8   -0.06    0.43
  -9   1  -8   -0.33    0.51
 -10  -1  -8    0.11    0.48
 -10  -1  -8    0.13    0.49
 -10   1  -8    0.40    0.58
 -10   1  -8   -0.06    0.60
 -11  -2   8    0.16    0.50
  11  -2  -8    1.61    0.86
  11   2  -8   -1.44    0.72
 -11   2   8    0.22    0.74
 -10  -2   8    2.56    1.64
  10  -2  -8    1.85    0.95
  10   2  -8    0.81    0.77
 -10   2   8    0.82    0.83
   9  -2  -8    0.20    0.81
  -9  -2   8    0.09    1.63
  -9   2   8   -0.53    1.29
   9   2  -8   -1.32    1.03
  -9   2   8    0.38    1.42
  -8  -2   8    1.07    1.39
   8   2  -8    1.46    0.80
  -8   2   8    1.77    1.21
   7  -2  -8    3.10    1.00
  -7  -2   8    5.01    1.49
  -7   2   8   -0.16    1.30
   7   2  -8    3.43    0.92
  -7   2   8    2.60    1.18
  -6  -2   8    0.18    1.45
   6  -2  -8    0.20    0.68
  -6   2   8    0.56    0.98
   6   2  -8    0.38    0.58
   5  -2  -8    1.19    0.71
   5   2  -8    1.14    0.70
  -5   2   8    2.12    1.13
   4  -2  -8    7.97    1.78
  -4  -2   8    9.89    2.31
   4  -2  -8    5.96    1.70
   4   2  -8    8.69    1.74
  -4   2   8    4.49    1.96
  -3  -2   8   -1.62    1.93
   3  -2  -8    0.19    0.37
   3   2  -8    1.14    0.66
  -3   2   8   -0.79    1.07
   2  -2  -8   12.05    2.60
   2  -2  -8   10.29    2.60
   2   2  -8   13.57    2.65
   1  -2  -8   -0.05    0.67
   1  -2  -8    0.00    0.43
  -1  -2   8   -0.83    1.06
  -1   2   8    0.02    1.00
   1   2  -8   -0.24    0.43
   0  -2  -8    0.40    0.47
   0  -2  -8    1.37    0.63
   0   2   8    1.52    1.00
   0   2  -8    1.01    0.47
  -1  -2  -8   19.18    3.73
  -1  -2  -8   15.83    3.74
   1   2   8   19.73    3.89
  -1   2  -8   14.08    3.83
  -1   2  -8   15.12    3.72
  -2  -2  -8    1.51    0.50
   2   2   8    3.75    1.29
  -2   2  -8    1.36    0.47
  -2   2  -8    0.92    0.48
  -2   2  -8    0.36    0.96
  -3  -2  -8    1.86    0.59
  -3   2  -8    2.10    0.59
  -3   2  -8    1.18    0.58
   3   2   8    3.18    1.38
  -4  -2  -8    0.08    0.55
  -4   2  -8    0.78    0.52
  -4   2  -8    0.81    0.51
   4   2   8    0.38    2.03
  -5  -2  -8   -0.17    0.72
  -5   2  -8    1.08    0.54
  -5   2  -8   -0.54    0.50
  -6  -2  -8   -0.05    0.64
  -6  -2  -8   -0.64    0.69
  -6   2  -8   -0.39    0.53
   6   2   8   -3.59    2.64
  -6   2  -8    0.62    0.58
  -7  -2  -8    0.19    0.67
  -7  -2  -8    0.25    0.79
  -7   2  -8    0.15    0.60
  -7   2  -8    1.35    0.72
   7   2   8   11.14    3.41
  -8  -2  -8   -0.07    0.64
  -8  -2  -8   -0.11    0.44
  -8   2  -8    0.63    0.69
  -8   2  -8    0.13    0.61
  -9  -2  -8   -0.50    1.05
  -9  -2  -8    0.02    0.61
  -9   2  -8    0.25    0.53
  -9   2  -8    0.42    0.63
 -11  -3   8    2.46    1.73
  11  -3  -8    2.26    0.96
 -11   3   8    3.49    2.19
  11   3  -8    1.53    0.89
 -11   3   8    1.50    0.88
 -10  -3   8    0.57    1.40
  10  -3  -8    1.04    0.91
  10   3  -8   -0.39    0.78
 -10   3   8   -0.18    0.68
 -10   3   8    2.05    1.53
  -9  -3   8   -1.14    1.53
   9   3  -8   -0.13    0.84
  -9   3   8   -0.77    1.38
  -9   3   8    0.44    0.78
   8  -3  -8    1.21    0.90
  -8  -3   8    0.84    1.53
  -8   3   8   -0.10    0.75
   8   3  -8    0.31    0.66
  -7  -3   8    7.77    2.07
   7  -3  -8    7.07    1.49
  -7   3   8    5.18    1.56
  -7   3   8    3.06    1.49
   6  -3  -8   -0.17    0.70
  -6  -3   8    1.19    1.53
  -6   3   8    0.18    0.87
   5  -3  -8   -0.57    0.66
  -5  -3   8   -1.17    1.92
   5   3  -8    0.53    0.62
  -5   3   8   -0.52    0.97
   4  -3  -8    0.28    0.79
  -4  -3   8   -0.43    1.66
   4  -3  -8    0.60    0.72
  -4   3   8    0.78    1.04
   4   3  -8   -0.17    0.66
   3  -3  -8    1.24    0.62
  -3  -3   8    2.77    1.86
   3  -3  -8    2.95    0.74
   3   3  -8    3.99    0.80
  -3   3   8    2.03    1.20
   2  -3  -8    1.16    0.57
  -2  -3   8   -6.49    2.76
   2  -3  -8    0.38    0.44
  -2   3   8    0.85    1.02
   2   3  -8    0.69    0.54
   1  -3  -8   20.84    5.19
   1  -3  -8   23.77    5.20
   1   3  -8   23.82    5.18
  -1   3   8   27.39    5.30
   0  -3  -8    2.50    0.85
   0  -3  -8    3.76    0.93
   0   3   8    3.49    1.21
   0   3  -8    2.88    0.77
   0   3  -8    3.50    1.14
  -1  -3  -8    0.36    0.46
  -1  -3  -8    0.44    0.57
   1   3   8    1.03    1.38
  -1   3  -8   -1.61    1.19
  -1   3  -8    0.13    0.36
  -2  -3  -8    0.97    0.59
  -2  -3  -8    0.70    0.48
   2   3   8    0.84    1.15
  -2   3  -8   -0.97    0.85
  -2   3  -8    0.44    0.39
  -2   3  -8    0.39    0.46
  -3  -3  -8    1.20    0.55
  -3  -3  -8    2.73    0.77
   3   3   8    1.66    1.19
  -3   3  -8    0.79    0.56
  -3   3  -8    0.29    0.49
  -4  -3  -8    0.95    0.54
   4   3   8    0.02    1.38
  -4   3  -8    1.51    0.58
  -4   3  -8    0.20    0.50
  -5  -3  -8    1.20    0.68
  -5   3  -8    0.64    0.68
   5   3   8    7.09    1.73
  -5   3  -8    1.71    0.61
  -6   3  -8    2.17    0.75
   6   3   8    1.75    2.09
  -7  -3  -8    1.07    0.71
   7   3   8    3.45    3.10
  -7   3  -8    1.12    0.81
  -7   3  -8   -0.12    0.56
  -8  -3  -8   -0.99    0.64
   8   3   8   -6.40    3.98
  -8   3  -8   -0.49    0.74
  -8   3  -8   -0.45    0.55
  -9  -3  -8    0.09    0.69
  -9   3  -8   -0.26    0.69
  -9   3  -8   -0.17    0.58
   9   3   8   -6.77    3.63
  11  -4  -8    1.88    1.28
 -11  -4   8    4.03    1.87
  11   4  -8    2.51    1.09
 -11   4   8    3.51    1.07
 -11   4   8    4.52    1.79
 -10  -4   8   -1.00    1.52
  10  -4  -8    0.03    1.01
 -10   4   8    0.63    0.70
  10   4  -8   -0.26    0.77
 -10   4   8    2.95    1.56
  -9  -4   8    3.60    1.94
   9  -4  -8    2.23    1.06
  -9   4   8    0.63    0.75
  -9   4   8   -0.97    1.22
   8  -4  -8    0.16    0.93
  -8  -4   8   -2.13    2.42
  -8   4   8   -0.81    1.86
  -7  -4   8    2.18    1.61
   7  -4  -8    0.25    1.23
  -7   4   8    0.56    1.00
  -7   4   8   -0.07    0.82
  -6  -4   8    4.61    1.63
   6  -4  -8   -0.43    0.82
  -6   4   8    0.35    0.87
   5  -4  -8   -0.11    0.82
  -5  -4   8   -0.27    1.73
  -5   4   8   -0.29    0.93
  -4  -4   8    3.49    1.90
   4  -4  -8    3.47    1.06
  -4   4   8    2.37    1.21
   4   4  -8    2.02    0.81
  -3   4   8    6.79    2.21
   3   4  -8    9.17    1.97
   2  -4  -8    4.82    1.60
   2  -4  -8    5.71    1.61
   2   4  -8    8.94    1.60
   2   4  -8    8.83    1.91
  -2   4   8    9.40    2.00
   1  -4  -8    3.69    1.17
   1  -4  -8    3.49    1.14
  -1   4   8    6.06    1.55
   1   4  -8    5.93    1.15
   1   4  -8    7.11    1.48
   0  -4  -8   -0.27    0.51
   0  -4  -8   -0.20    0.60
   0   4  -8    0.81    0.36
   0   4  -8   -0.21    0.84
   0   4   8    0.84    1.00
  -1  -4  -8    1.25    0.70
  -1  -4  -8    1.41    0.65
  -1   4  -8    1.19    0.83
   1   4   8    2.13    1.03
  -1   4  -8    1.89    0.53
  -2  -4  -8    0.49    0.47
  -2  -4  -8    0.72    0.61
  -2   4  -8    0.57    0.45
   2   4   8    0.02    0.96
  -2   4  -8    0.96    0.43
  -2   4  -8   -0.07    0.77
  -3  -4  -8    0.22    0.43
  -3  -4  -8    0.06    0.78
  -3   4  -8   -0.16    0.41
  -3   4  -8    0.51    0.56
   3   4   8   -0.69    0.99
  -3   4  -8    1.42    0.93
  -4  -4  -8    0.07    0.87
  -4  -4  -8    0.28    0.53
  -4   4  -8    0.14    0.47
   4   4   8    1.46    1.19
  -4   4  -8   -0.16    0.51
  -5  -4  -8    0.36    0.56
  -5   4  -8   -0.35    0.45
  -5   4  -8   -0.68    0.56
   5   4   8   -4.43    1.24
  -6  -4  -8   -0.71    0.55
  -6   4  -8   -0.29    0.50
   6   4   8   -0.62    1.96
  -6   4  -8   -0.18    0.61
  -7  -4  -8    1.07    0.66
  -7   4  -8    0.67    0.60
  -7   4  -8    0.49    0.70
  -8  -4  -8   -0.60    0.63
  -8   4  -8   -0.19    0.67
   8   4   8    4.12    2.66
  -8   4  -8    0.08    0.54
  -9  -4  -8   -0.40    0.65
  -9   4  -8    0.18    0.65
  -9   4  -8    0.76    0.64
   9   4   8    5.57    3.42
  10  -5  -8    0.40    1.14
 -10  -5   8   -1.04    1.81
  10   5  -8    1.31    1.53
 -10   5   8    1.30    0.79
 -10   5   8    0.78    1.15
   9  -5  -8    2.75    1.17
  -9  -5   8    1.33    1.80
  -9   5   8    1.40    0.86
  -9   5   8    2.17    1.30
   8  -5  -8    0.05    1.34
  -8  -5   8   -1.88    1.83
  -8   5   8   -1.15    1.12
  -8   5   8    0.65    0.77
  -7  -5   8    0.79    2.03
   7  -5  -8   -0.22    0.96
  -7   5   8    0.99    0.88
  -7   5   8   -0.57    1.14
   6  -5  -8    0.15    1.05
  -6  -5   8   -4.26    2.10
  -6   5   8   -1.45    0.90
  -5  -5   8   -2.99    3.07
   5  -5  -8    0.46    0.97
  -5   5   8   -2.10    1.03
   5   5  -8   -0.30    1.27
   4  -5  -8    0.03    0.38
   4   5  -8   -0.10    0.52
   4   5  -8   -0.73    1.49
  -4   5   8    0.15    1.12
   3  -5  -8    3.33    1.00
  -3   5   8    5.09    1.53
   3   5  -8    2.85    1.06
   3   5  -8    5.43    1.54
   3   5  -8    4.34    0.97
   2  -5  -8    2.86    0.99
  -2   5   8    4.23    1.53
   2   5  -8    4.05    1.04
   2   5  -8    7.76    1.64
   1  -5  -8    4.87    1.40
   1  -5  -8    4.14    1.38
  -1   5   8    6.28    1.76
   1   5  -8    7.91    1.62
   1   5  -8    6.36    1.42
   1   5  -8    5.88    1.32
   0  -5  -8    0.45    0.65
   0  -5  -8    1.32    0.64
   0   5  -8    1.47    0.92
   0   5   8    2.15    1.14
   0   5  -8    0.79    0.54
  -1  -5  -8    4.07    1.00
  -1  -5  -8    3.38    1.01
   1   5   8    4.50    1.32
  -1   5  -8    3.60    0.93
  -1   5  -8    2.41    1.18
  -2  -5  -8    0.53    0.68
  -2  -5  -8    0.79    0.48
   2   5   8   -0.41    0.95
  -2   5  -8    1.87    0.81
  -2   5  -8    1.15    0.74
  -3  -5  -8    6.55    1.49
  -3  -5  -8    4.20    1.14
  -3   5  -8    4.97    1.32
   3   5   8    5.21    1.42
  -3   5  -8    4.00    1.15
  -4  -5  -8   -0.01    0.46
  -4  -5  -8   -0.53    1.02
  -4   5  -8    0.73    0.52
   4   5   8   -0.57    1.04
  -4   5  -8   -0.01    0.48
  -4   5  -8    0.87    1.20
  -5  -5  -8    1.69    0.85
  -5  -5  -8    2.37    1.13
  -5   5  -8    1.09    0.61
  -5   5  -8    1.71    0.73
  -6  -5  -8    0.67    0.57
   6   5   8    0.89    2.02
  -6   5  -8   -0.29    0.89
  -6   5  -8   -0.17    0.54
  -7  -5  -8    0.42    0.58
   7   5   8    1.35    1.63
  -7   5  -8   -0.33    0.63
  -7   5  -8   -0.49    0.56
  -8  -5  -8    1.35    0.81
  -8   5  -8    2.94    0.87
  -8   5  -8    2.22    0.85
   8   5   8    3.61    2.22
   9  -6  -8   -0.57    1.16
  -9  -6   8   -2.01    2.00
  -9   6   8   -0.58    0.91
   9   6  -8   -0.74    1.51
  -9   6   8   -2.21    1.23
  -8  -6   8    6.49    3.08
   8  -6  -8    3.36    1.57
  -8   6   8    5.33    1.55
  -8   6   8    4.21    1.31
   8   6  -8    5.94    1.83
  -7  -6   8    2.07    4.33
   7  -6  -8   -0.97    1.48
  -7   6   8   -0.38    0.98
   7   6  -8   -0.89    1.39
  -7   6   8   -0.02    0.83
   6  -6  -8    1.71    1.28
  -6  -6   8   -0.26    3.43
   6   6  -8    2.89    1.49
   5   6  -8    2.90    1.56
  -5   6   8    0.93    1.04
   4  -6  -8    1.46    0.58
  -4   6   8    1.54    1.95
   4   6  -8   -0.64    0.77
   4   6  -8    3.15    1.33
   3  -6  -8    6.11    1.77
   3   6  -8    9.02    1.78
   3   6  -8    7.78    1.71
  -3   6   8    6.92    2.25
   2  -6  -8    0.21    0.49
   2   6  -8   -1.72    1.14
   2   6  -8    0.56    0.44
   2   6  -8   -0.69    0.62
  -2   6   8   -0.58    1.24
   1  -6  -8    2.51    0.97
   1   6  -8    3.87    0.90
  -1   6   8    2.48    1.51
   1   6  -8    1.88    1.64
   1   6  -8    4.32    0.96
   0  -6  -8    0.35    1.05
   0  -6  -8    0.44    0.58
   0   6  -8   -0.54    0.61
   0   6  -8    0.56    0.49
   0   6   8    2.18    1.19
   0   6  -8   -0.71    0.97
  -1  -6  -8    0.18    0.59
  -1  -6  -8   -0.26    0.67
   1   6   8    0.25    1.09
  -1   6  -8   -0.67    0.51
  -1   6  -8    1.46    0.90
  -1   6  -8    0.28    0.73
  -2  -6  -8    4.46    1.10
  -2   6  -8    4.33    1.24
  -3  -6  -8    0.65    0.98
  -3  -6  -8    0.72    0.64
  -3   6  -8    2.05    0.94
  -3   6  -8    0.45    0.51
  -3   6  -8    1.35    0.77
  -4  -6  -8    2.07    0.70
  -4  -6  -8    1.74    1.49
   4   6   8    2.74    1.16
  -4   6  -8    2.02    0.73
  -4   6  -8    3.42    1.52
  -4   6  -8    1.10    0.72
  -5  -6  -8    0.14    0.54
  -5  -6  -8    2.43    1.12
   5   6   8    0.31    1.60
  -5   6  -8    0.82    0.57
  -5   6  -8    1.41    0.66
  -6  -6  -8    0.40    0.51
   6   6   8   -1.39    1.14
  -6   6  -8    0.64    0.67
  -6   6  -8    0.03    0.51
  -6   6  -8    2.01    0.93
  -7  -6  -8    0.52    0.59
   7   6   8    3.04    1.45
  -7   6  -8    1.22    0.70
  -7   6  -8   -0.48    0.97
  -8  -6  -8   -0.08    0.56
   8   6   8   -0.97    1.87
  -8   6  -8    0.91    0.68
   9  -7  -8    0.44    2.00
   9   7  -8   -0.44    1.40
   8  -7  -8   -2.10    1.36
  -8  -7   8   -2.01    3.23
  -8   7   8    1.17    1.14
   8   7  -8    1.15    1.40
   7  -7  -8    0.12    0.60
  -7   7   8   -0.86    0.76
   7   7  -8   -1.21    1.25
  -7   7   8   -0.20    0.92
   6  -7  -8    1.74    0.68
   6   7  -8    2.33    1.34
   6   7  -8    1.12    0.79
  -6   7   8    0.78    0.85
   5   7  -8    3.88    1.44
   5   7  -8    2.39    0.95
  -5   7   8    2.92    1.11
   4  -7  -8    1.13    0.66
  -4   7   8    2.07    1.52
   4   7  -8    0.91    1.28
   4   7  -8    1.34    0.83
   3  -7  -8   -0.06    0.55
  -3   7   8    1.26    1.15
   3   7  -8    1.02    1.24
   3   7  -8    0.39    0.62
   2  -7  -8   -0.64    0.55
  -2   7   8    0.60    1.22
   2   7  -8    0.15    0.50
   2   7  -8   -0.70    1.25
   1  -7  -8    0.66    0.78
  -1   7   8   -0.01    1.34
   1   7  -8   -0.88    1.85
   1   7  -8    1.39    0.69
   0  -7  -8   -0.54    0.60
   0   7   8    0.19    1.27
   0   7  -8   -0.16    0.89
   0   7  -8   -1.71    0.63
   0   7  -8    1.36    1.06
  -1  -7  -8    0.11    0.73
  -1  -7  -8    2.74    1.35
  -1   7  -8    1.23    0.98
  -1   7  -8   -0.46    0.75
   1   7   8    0.08    1.25
  -1   7  -8    1.02    0.63
  -2  -7  -8    0.51    0.86
  -2  -7  -8    0.55    0.85
  -2   7  -8    0.87    0.73
  -2   7  -8    1.04    0.68
  -2   7  -8    0.81    1.12
   2   7   8    1.92    1.28
  -3  -7  -8    2.16    1.29
  -3  -7  -8    1.86    0.66
  -3   7  -8    1.39    0.97
  -3   7  -8    1.49    1.95
  -3   7  -8    0.82    0.84
  -3   7  -8    1.45    0.79
   3   7   8    3.24    1.65
  -4  -7  -8    3.09    1.28
  -4  -7  -8    0.97    0.55
   4   7   8    1.00    1.18
  -4   7  -8   -2.31    1.28
  -4   7  -8    2.76    1.09
  -4   7  -8    1.63    0.86
  -4   7  -8    1.41    0.61
  -5  -7  -8    2.16    1.24
  -5  -7  -8    1.41    0.62
  -5   7  -8    1.63    0.69
  -5   7  -8    1.94    0.84
   5   7   8    1.22    1.15
  -5   7  -8    0.20    1.33
  -6  -7  -8    0.38    0.53
   6   7   8    3.02    1.23
  -6   7  -8    0.85    0.80
  -6   7  -8    0.85    0.64
  -7  -7  -8    1.17    0.62
  -7   7  -8    0.96    0.69
   7   7   8    2.17    1.35
  -7   7  -8    2.04    0.85
   7  -8  -8   -0.33    0.70
  -7   8   8    1.32    1.03
   7   8  -8   -0.29    1.18
   7   8  -8    0.18    0.70
   6  -8  -8    1.40    0.79
   6   8  -8    1.36    0.71
   6   8  -8    2.92    1.33
   5  -8  -8    2.35    0.87
   5   8  -8    1.48    0.75
  -5   8   8    2.19    0.98
   5   8  -8    2.88    1.30
   4  -8  -8    0.06    0.58
  -4   8   8   -0.42    0.91
   4   8  -8    0.30    1.16
   4   8  -8    0.13    0.61
   3  -8  -8   -0.03    0.69
   3   8  -8   -0.45    1.17
   3   8  -8    1.05    0.62
  -3   8   8    0.12    1.02
   2   8  -8    5.50    1.47
  -2   8   8    6.01    1.79
   2   8  -8    6.23    1.80
   1  -8  -8    0.69    1.39
   1   8  -8    2.98    1.28
   1   8  -8    0.89    0.59
  -1   8   8    1.46    1.31
   1   8  -8   -0.26    0.78
   0  -8  -8    5.01    1.59
   0   8  -8    6.76    1.67
   0   8   8    6.81    1.90
   0   8  -8    5.47    1.54
  -1  -8  -8    0.07    0.82
  -1   8  -8    1.27    1.00
  -1   8  -8    0.45    0.79
   1   8   8   -0.74    1.37
  -1   8  -8    0.91    1.15
  -2  -8  -8   -0.35    0.95
   2   8   8    0.92    1.34
  -2   8  -8    1.37    0.96
  -2   8  -8    0.57    0.72
  -2   8  -8   -1.60    0.72
  -3  -8  -8    1.54    1.26
  -3  -8  -8    0.79    0.58
  -3   8  -8    2.24    0.77
   3   8   8    1.35    1.32
  -3   8  -8   -0.15    1.02
  -3   8  -8   -0.31    0.88
  -4  -8  -8    1.50    1.35
  -4  -8  -8    0.33    0.60
   4   8   8    0.87    1.23
  -4   8  -8    3.02    1.09
  -4   8  -8    0.68    0.74
  -4   8  -8   -0.72    1.00
  -5  -8  -8    1.72    1.31
  -5  -8  -8    1.31    0.60
  -5   8  -8    0.09    0.51
  -5   8  -8    0.93    1.22
   5   8   8   -1.81    1.18
  -5   8  -8    1.18    0.75
   6  -9  -8   -0.43    1.01
  -6   9   8    0.79    0.91
   6   9  -8   -0.72    0.62
   6   9  -8   -0.39    1.17
   5  -9  -8    1.49    0.86
   5   9  -8    0.67    1.14
   5   9  -8   -0.38    0.59
   4  -9  -8   -0.02    0.72
  -4   9   8    0.16    1.08
   4   9  -8   -0.38    0.56
   4   9  -8    0.15    1.18
   3  -9  -8   -1.10    0.66
  -3   9   8    0.03    0.91
   3   9  -8   -0.62    1.16
   3   9  -8    1.19    0.56
   2  -9  -8    1.75    0.77
   2   9  -8    3.02    1.26
  -2   9   8    0.78    1.06
   2   9  -8    0.41    0.67
   1  -9  -8    2.38    0.98
  -1   9   8    2.34    1.30
   1   9  -8    4.36    1.17
   1   9  -8    1.85    0.85
   0  -9  -8   -0.36    0.74
   0   9  -8   -0.15    1.03
   0   9  -8   -0.08    0.65
   0   9   8    1.85    1.29
  -1  -9  -8   -0.01    0.92
  -1   9  -8   -0.12    0.71
  -1   9  -8   -0.83    1.04
  -1   9  -8   -0.57    0.67
   1   9   8    1.15    1.27
  -2  -9  -8    4.21    1.41
  -2   9  -8    5.20    1.06
  -2   9  -8    3.45    1.28
  -2   9  -8    0.72    1.05
   2   9   8    1.88    1.51
  -3  -9  -8    2.13    1.39
  -3   9  -8    3.59    0.88
   3   9   8    1.72    1.41
  -3   9  -8    1.22    1.08
  -3   9  -8    1.62    1.13
  -4  -9  -8    0.77    1.36
   4   9   8   -1.36    1.30
  -4   9  -8   -1.88    1.69
  -4   9  -8   -0.40    0.64
  -4   9  -8    0.38    0.91
   2 -10  -8    1.50    0.95
   2  10  -8    0.95    1.05
   2  10  -8   -0.21    0.57
   1 -10  -8    0.42    0.89
   1  10  -8   -0.75    1.10
  -1  10   8    0.48    0.95
   1  10  -8   -0.38    0.62
   0 -10  -8   -1.22    0.92
   0  10  -8    0.52    0.73
   0  10   8   -0.29    1.16
   0  10  -8   -0.67    1.13
  -1  10  -8   -0.09    0.77
 -11   0   9    0.01    0.55
  11   0  -9   -0.24    0.70
 -10   0   9    0.30    0.66
  10   0  -9    0.39    0.72
  -9   0   9    0.22    0.59
   9   0  -9   -0.29    0.71
   8   0  -9    0.63    0.81
  -8   0   9   -0.14    0.64
  -7   0   9    0.30    0.69
   7   0  -9   -0.12    0.71
   6   0  -9   -0.42    0.62
  -6   0   9    0.05    0.72
  -5   0   9    0.12    0.79
   5   0  -9   -0.07    0.50
   5   0  -9   -0.03    0.74
  -4   0   9   -1.00    0.80
   4   0  -9    0.06    0.31
   4   0  -9    0.34    0.56
  -3   0   9    1.10    1.78
   3   0  -9    0.04    0.62
  -2   0   9   -0.96    1.47
   2   0  -9   -1.10    0.56
   1   0  -9   -0.03    0.51
  -1   0   9   -0.92    1.48
   0   0  -9    0.03    0.47
   0   0   9    0.39    1.67
   1   0   9   -0.48    1.95
  -1   0  -9    0.06    0.45
   2   0   9    6.91    3.10
  -3   0  -9   -0.36    0.53
  -4   0  -9    0.39    0.63
  -5   0  -9    0.13    0.93
  -6   0  -9   -0.20    0.37
  -6   0  -9   -0.63    0.76
  -7   0  -9    0.48    0.50
  -7   0  -9    0.41    0.77
  -8   0  -9   -0.09    0.71
  -8   0  -9    0.04    0.50
  -9   0  -9   -0.32    0.40
  -9   0  -9    0.47    0.66
  11  -1  -9   -0.13    0.76
 -11  -1   9   -0.59    0.65
  11   1  -9   -0.03    0.72
 -11   1   9   -0.30    0.88
 -10  -1   9    1.13    0.67
  10  -1  -9    1.02    0.82
 -10   1   9    0.33    1.01
  10   1  -9    2.18    0.84
   9  -1  -9    1.05    0.83
  -9  -1   9    0.08    0.54
  -9   1   9   -1.23    0.97
   9   1  -9   -0.54    0.77
   8  -1  -9    0.44    1.03
  -8  -1   9   -0.04    0.56
  -8   1   9   -0.32    0.57
   8   1  -9    0.99    0.87
   7  -1  -9    0.39    0.73
  -7  -1   9   -0.29    0.57
   7   1  -9    1.19    0.70
  -7   1   9    0.34    0.71
  -6  -1   9    0.01    0.63
   6  -1  -9   -0.03    0.63
  -6   1   9   -0.35    1.22
   6   1  -9    0.49    0.64
  -5  -1   9    1.14    1.05
   5  -1  -9    5.01    1.13
   5   1  -9    4.68    1.01
  -5   1   9    2.98    1.59
  -4  -1   9   -0.67    0.98
   4  -1  -9   -0.12    0.34
   4  -1  -9   -0.38    0.48
   4   1  -9   -0.57    0.63
  -4   1   9   -0.04    1.42
   3  -1  -9    0.26    0.36
  -3  -1   9   -0.45    1.00
   3  -1  -9    0.44    0.56
   3   1  -9   -0.37    0.64
  -3   1   9   -1.30    1.37
  -2  -1   9    0.74    1.14
   2  -1  -9    0.00    0.41
   2  -1  -9    0.14    0.53
   2   1  -9    0.17    0.54
   1  -1  -9    3.08    0.90
  -1  -1   9    3.66    2.03
   1   1  -9    3.66    0.91
  -1   1   9    0.99    1.76
   0  -1  -9   11.56    2.52
   0  -1   9   10.40    3.48
   0   1  -9   10.46    2.49
   0   1   9   11.62    2.80
  -1  -1  -9    0.02    0.57
   1   1   9    2.61    1.63
  -1   1  -9   -2.22    2.07
  -1   1  -9    0.74    0.48
  -2  -1  -9    0.09    0.53
   2   1   9    0.00    1.90
  -2   1  -9    0.08    0.45
  -3  -1  -9    6.27    1.41
  -3   1  -9    4.34    1.49
   3   1   9    8.46    2.69
  -4  -1  -9    1.55    0.72
  -4   1  -9    0.44    0.62
  -4   1  -9    1.38    0.78
   4   1   9   -0.50    3.14
  -5   1  -9    0.67    0.99
  -6  -1  -9    1.47    0.66
  -6   1  -9    1.15    0.69
  -6   1  -9    1.22    0.59
  -7  -1  -9    0.51    0.64
  -7  -1  -9   -0.99    0.77
  -7   1  -9   -0.28    0.64
  -7   1  -9    0.44    0.51
  -8  -1  -9    0.38    0.61
  -8  -1  -9   -0.23    0.76
  -8   1  -9    0.67    0.68
  -8   1  -9    0.49    0.53
  -9  -1  -9   -0.07    0.50
  -9   1  -9    0.28    0.41
  -9   1  -9    0.13    0.59
 -11  -2   9    0.38    0.59
  11  -2  -9   -0.28    0.78
  11   2  -9   -0.49    0.78
 -11   2   9   -0.18    0.82
 -10  -2   9   -0.32    0.61
  10  -2  -9    0.29    0.81
 -10   2   9    0.40    0.86
   9  -2  -9   -0.17    0.80
  -9  -2   9   -0.21    0.56
  -9   2   9    0.53    0.93
   9   2  -9    0.18    0.77
  -8  -2   9    1.18    0.70
  -8   2   9    1.99    2.06
  -8   2   9    5.00    1.55
   7  -2  -9   -0.21    0.70
  -7  -2   9   -0.05    0.55
  -7   2   9    2.15    1.24
  -7   2   9   -0.88    1.23
   6  -2  -9    1.53    1.08
  -6  -2   9    0.76    0.69
  -6   2   9    2.03    1.20
   5  -2  -9    0.17    0.75
  -5  -2   9    0.05    0.66
  -5   2   9    0.91    1.22
   5   2  -9   -0.25    0.69
   4  -2  -9    3.51    0.91
   4  -2  -9    2.47    0.83
  -4   2   9    2.34    1.49
   4   2  -9    6.82    1.08
  -3  -2   9   -0.20    0.80
   3  -2  -9    0.13    0.36
   3  -2  -9    0.84    0.53
   3   2  -9   -0.10    0.63
  -3   2   9   -1.60    1.21
   2  -2  -9    2.67    0.84
  -2  -2   9    1.42    1.35
   2  -2  -9    4.11    0.89
   2   2  -9    4.13    0.94
  -2   2   9    0.93    1.40
   1  -2  -9    1.08    0.52
   1  -2  -9    0.09    0.47
  -1   2   9    0.48    1.12
   1   2  -9   -0.08    0.49
   0  -2  -9    1.44    0.54
   0  -2  -9    0.94    0.61
   0   2  -9    0.70    0.50
   0   2  -9   -0.31    1.01
   0   2   9    2.17    1.15
  -1  -2  -9    0.11    0.57
  -1   2  -9    0.17    0.42
   1   2   9    0.28    1.51
  -2  -2  -9    2.38    0.66
  -2   2  -9    0.93    0.57
   2   2   9    2.35    1.64
  -3  -2  -9   -0.26    0.56
  -3   2  -9    0.18    0.43
   3   2   9   -0.13    1.69
  -3   2  -9    1.68    0.78
  -4  -2  -9    0.40    0.49
  -4   2  -9    1.04    0.57
  -4   2  -9    0.58    0.49
   4   2   9   -4.52    2.09
  -5  -2  -9   -0.16    0.55
  -5   2  -9    0.46    0.64
  -5   2  -9    0.05    0.38
   5   2   9   -1.10    2.86
  -6  -2  -9    3.70    1.22
  -6   2  -9    6.66    1.33
  -6   2  -9    4.76    1.22
  -7  -2  -9   -0.05    0.62
  -7   2  -9    0.21    0.77
  -7   2  -9    0.36    0.59
  -8  -2  -9    0.14    0.57
  -8   2  -9   -1.07    0.71
  -8   2  -9    0.01    0.59
 -10  -3   9   -0.26    0.60
  10  -3  -9    0.75    0.87
  10   3  -9   -0.43    0.80
 -10   3   9    0.30    0.75
  -9  -3   9    0.40    1.96
   9  -3  -9    0.25    0.86
  -9   3   9   -2.44    1.21
  -9   3   9   -0.22    0.81
   8  -3  -9   -1.00    0.88
  -8  -3   9   -1.04    2.07
  -8   3   9   -0.64    0.82
   7  -3  -9    0.05    0.81
  -7  -3   9    5.97    2.04
  -7   3   9    0.30    1.07
  -7   3   9    0.44    0.96
  -6  -3   9    1.41    1.97
   6  -3  -9    0.67    1.63
  -6   3   9    0.89    1.90
  -5  -3   9    0.50    2.17
   5  -3  -9    1.58    0.99
  -5   3   9    0.83    1.24
   5   3  -9    4.08    0.90
  -4  -3   9   -1.72    2.56
   4  -3  -9    0.26    0.36
   4   3  -9   -0.76    0.65
  -4   3   9    0.62    1.20
   3  -3  -9    5.33    1.12
   3  -3  -9    3.98    1.08
  -3  -3   9    1.34    1.36
  -3   3   9    7.35    1.63
   2  -3  -9    6.10    1.66
  -2   3   9    6.97    2.02
   2   3  -9    8.28    1.68
   1  -3  -9    0.54    0.49
   1  -3  -9    0.13    0.47
   1   3  -9    0.98    0.52
   1   3  -9   -0.50    1.00
  -1   3   9    0.54    1.19
   0  -3  -9    2.78    0.67
   0  -3  -9    1.34    0.67
   0   3   9    0.77    1.15
   0   3  -9    2.94    1.05
   0   3  -9    1.76    0.64
  -1  -3  -9    0.18    0.53
  -1  -3  -9    1.46    0.63
  -1   3  -9    0.14    0.37
   1   3   9   -2.08    1.20
  -1   3  -9   -0.07    0.83
  -2  -3  -9    0.18    0.55
  -2   3  -9    0.68    0.48
  -2   3  -9    3.36    1.08
   2   3   9   -0.16    1.21
  -3  -3  -9    0.72    0.82
  -3   3  -9    1.50    0.82
  -3   3  -9    0.50    0.49
   3   3   9    3.91    1.47
  -4  -3  -9   -0.25    0.42
   4   3   9   -2.62    1.53
  -4   3  -9    0.02    0.93
  -4   3  -9    0.39    0.47
  -5  -3  -9    1.21    0.52
   5   3   9    1.00    2.00
  -5   3  -9    0.05    0.45
  -5   3  -9    0.43    0.54
  -6  -3  -9    0.74    0.59
  -6   3  -9    2.67    0.78
   6   3   9    5.46    2.84
  -6   3  -9    0.94    0.59
  -7  -3  -9   -0.02    0.60
   7   3   9   -2.49    3.08
  -7   3  -9    1.02    0.70
  -7   3  -9    0.45    0.58
  -8  -3  -9    0.60    0.62
  -8   3  -9    0.66    0.73
   8   3   9   -5.05    4.28
  -8   3  -9    0.15    0.55
 -10  -4   9    3.18    2.33
  10  -4  -9    0.95    1.06
 -10   4   9    0.16    0.72
 -10   4   9   -0.35    1.72
  -9  -4   9    6.37    2.11
   9  -4  -9   -0.96    0.99
  -9   4   9   -0.60    0.71
  -9   4   9    0.00    1.37
  -8  -4   9    3.48    3.38
   8  -4  -9    0.50    1.01
  -8   4   9    0.34    0.80
  -8   4   9   -1.59    1.21
  -7  -4   9    2.07    3.19
  -7   4   9    2.38    1.15
  -7   4   9    0.27    0.94
  -6  -4   9   11.13    2.35
   6  -4  -9    4.53    1.45
  -6   4   9    3.01    1.43
  -5  -4   9    4.17    2.42
   4  -4  -9    0.11    0.40
   4   4  -9    0.66    0.88
  -4   4   9    0.36    1.18
   4   4  -9   -0.18    0.63
   3  -4  -9    0.39    0.47
  -3   4   9    1.70    1.35
   3   4  -9    0.17    1.87
   3   4  -9    1.86    0.62
   2  -4  -9    0.16    0.45
   2  -4  -9   -1.03    0.66
   2   4  -9    0.47    0.51
  -2   4   9   -0.74    1.20
   2   4  -9   -0.01    1.14
   1  -4  -9   -0.24    0.47
   1  -4  -9    0.37    0.49
   1   4  -9    0.38    1.01
   1   4  -9   -0.06    0.47
  -1   4   9   -0.97    1.13
   0  -4  -9   10.48    2.04
   0  -4  -9    9.87    2.08
   0   4  -9    7.20    2.02
   0   4   9    8.22    2.30
   0   4  -9    8.38    2.19
  -1  -4  -9    0.26    0.64
  -1  -4  -9    0.87    0.63
  -1   4  -9    1.97    0.87
  -1   4  -9    0.18    0.41
   1   4   9    1.24    1.06
  -2  -4  -9    5.17    1.11
  -2  -4  -9    3.92    1.61
  -2   4  -9    4.25    1.33
   2   4   9    5.79    1.46
  -2   4  -9    3.37    1.03
  -3  -4  -9    4.54    1.28
  -3   4  -9    6.33    1.37
  -3   4  -9    0.36    1.92
  -3   4  -9    9.49    1.59
  -4   4  -9   -0.74    0.49
   4   4   9    0.41    1.37
  -4   4  -9   -0.46    0.40
  -5  -4  -9    0.27    0.48
  -5   4  -9    0.72    0.58
  -5   4  -9    0.80    0.44
   5   4   9   -0.55    1.73
  -6  -4  -9    0.31    0.46
   6   4   9    2.72    2.13
  -6   4  -9    0.41    0.64
  -6   4  -9    0.08    0.50
  -7  -4  -9   -0.13    0.52
   7   4   9   -5.19    2.38
  -7   4  -9    0.04    0.54
  -7   4  -9   -0.40    0.67
  -8  -4  -9    1.65    0.63
  -8   4  -9    0.65    0.63
  -8   4  -9    2.70    0.75
  -9  -5   9    5.34    2.53
   9  -5  -9    1.67    1.12
  -9   5   9    1.78    1.45
  -9   5   9    0.70    0.83
   9   5  -9    3.57    1.48
  -8  -5   9   -3.19    2.62
   8  -5  -9    2.92    1.30
  -8   5   9    2.78    1.36
  -8   5   9    1.63    0.91
   8   5  -9    4.14    1.67
   7  -5  -9    0.23    1.18
  -7  -5   9   -3.48    3.01
  -7   5   9    0.69    1.07
   7   5  -9    1.13    1.56
  -7   5   9    1.43    0.84
  -6  -5   9    1.93    3.07
  -6   5   9    2.13    1.27
   6   5  -9    5.58    1.68
   5  -5  -9   -0.17    0.41
   5   5  -9    1.13    1.44
  -5   5   9    0.52    1.07
   4  -5  -9    0.19    0.45
  -4   5   9   -0.91    1.25
   4   5  -9    0.45    0.65
   4   5  -9    1.61    1.71
   3   5  -9    6.97    1.74
   3   5  -9    2.67    1.10
  -3   5   9    0.58    2.79
   3   5  -9    4.30    1.02
  -2   5   9    0.85    1.35
   2   5  -9    0.59    1.10
   2   5  -9    0.26    0.48
   1  -5  -9   -0.66    0.57
   1   5  -9   -0.35    1.17
   1   5  -9    0.11    0.43
  -1   5   9    1.07    1.29
   0  -5  -9   -1.06    0.52
   0   5  -9   -0.18    0.43
   0   5  -9    0.56    1.15
   0   5   9   -0.56    1.10
  -1  -5  -9    1.78    0.77
  -1  -5  -9    0.60    0.69
  -1   5  -9    0.94    0.57
  -1   5  -9    0.82    0.97
   1   5   9    1.03    1.15
  -2  -5  -9    0.03    0.71
  -2  -5  -9    0.14    0.85
  -2   5  -9   -0.22    0.54
   2   5   9   -0.60    1.14
  -2   5  -9    1.04    0.81
  -3  -5  -9    3.44    1.04
  -3   5  -9    3.52    1.46
  -3   5  -9    5.70    1.12
   3   5   9    5.60    1.81
  -4  -5  -9    0.12    1.09
  -4  -5  -9    0.06    0.43
  -4   5  -9   -0.46    0.36
  -4   5  -9   -0.74    0.52
   4   5   9    0.61    1.32
  -5  -5  -9    0.95    0.48
  -5   5  -9    0.06    0.77
   5   5   9    2.47    1.32
  -5   5  -9    0.58    0.63
  -6  -5  -9   -1.08    0.42
  -6   5  -9    0.37    0.57
   6   5   9   -1.78    1.63
  -6   5  -9    1.15    0.70
  -7  -5  -9    0.72    0.49
   7   5   9    0.41    2.11
  -7   5  -9    0.96    0.60
  -7   5  -9    1.31    0.86
  -8  -6   9   -4.96    3.38
   8  -6  -9   -1.16    1.33
   8   6  -9    0.23    1.55
  -8   6   9    0.15    0.77
  -8   6   9   -0.71    1.22
   7  -6  -9    1.31    0.64
  -7   6   9    3.00    1.14
  -7   6   9    0.63    0.88
   7   6  -9    3.41    1.63
   6  -6  -9   -0.28    0.47
   6   6  -9   -0.03    1.49
  -6   6   9    0.21    0.92
   6   6  -9    1.02    0.72
   5  -6  -9    0.42    0.50
   5   6  -9    0.04    1.40
   5   6  -9   -0.64    0.66
  -5   6   9   -0.36    0.96
   4  -6  -9    0.64    0.58
   4   6  -9    0.54    0.66
   4   6  -9    1.24    1.34
   3  -6  -9    4.32    1.25
  -3   6   9    0.78    1.70
   3   6  -9    6.95    1.70
   3   6  -9    4.04    1.28
   3   6  -9    6.63    1.23
   2  -6  -9   -0.27    0.52
   2   6  -9    0.20    1.41
   2   6  -9    0.25    0.69
   2   6  -9    0.70    0.47
  -2   6   9    0.75    1.38
   1  -6  -9    0.76    0.59
   1   6  -9   -1.56    1.43
  -1   6   9    0.65    1.31
   1   6  -9    0.04    0.51
   0  -6  -9    0.35    0.67
   0   6  -9    1.13    0.54
   0   6  -9    0.64    1.13
   0   6   9    0.81    1.30
  -1  -6  -9    2.99    0.98
  -1  -6  -9    3.05    1.07
   1   6   9    2.23    1.41
  -1   6  -9    4.78    1.28
  -1   6  -9    2.80    0.88
  -2  -6  -9    0.94    1.58
  -2  -6  -9   -0.50    0.63
  -2   6  -9    0.08    0.61
   2   6   9    1.59    1.31
  -2   6  -9   -0.67    1.02
  -3  -6  -9    0.73    0.63
  -3  -6  -9    0.31    1.07
  -3   6  -9    0.32    1.79
   3   6   9    1.29    1.25
  -3   6  -9    0.17    0.64
  -4  -6  -9    0.93    1.13
  -4  -6  -9    0.05    0.48
   4   6   9    4.07    1.11
  -4   6  -9    0.89    0.79
  -4   6  -9    0.42    0.60
  -5  -6  -9   -0.05    0.38
   5   6   9    1.22    1.27
  -5   6  -9    0.35    0.74
  -5   6  -9   -0.02    0.44
  -6  -6  -9    0.66    0.54
  -6   6  -9    0.88    0.52
   6   6   9    3.77    1.46
  -6   6  -9    0.33    0.74
   7  -7  -9    0.82    0.68
  -7   7   9    0.51    0.98
   7   7  -9    0.21    0.68
  -7   7   9   -0.67    0.69
   7   7  -9    0.48    1.36
   6  -7  -9    1.43    0.65
   6   7  -9   -0.25    0.58
  -6   7   9    0.85    0.79
   6   7  -9    1.07    1.40
   5  -7  -9    1.95    0.74
  -5   7   9    2.39    1.00
   5   7  -9    3.72    1.48
   5   7  -9    0.78    0.73
   4  -7  -9    3.37    1.05
  -4   7   9    3.03    1.30
   4   7  -9    5.92    1.60
   4   7  -9    3.64    1.01
   3  -7  -9    0.12    0.56
   3   7  -9    0.83    0.65
   3   7  -9   -0.09    1.21
  -3   7   9   -1.43    1.13
   2  -7  -9    0.46    0.61
   2   7  -9   -0.73    1.24
   2   7  -9    0.22    1.03
  -2   7   9   -0.49    1.28
   2   7  -9   -0.30    0.53
   1  -7  -9    0.06    0.63
  -1   7   9   -0.78    1.31
   1   7  -9    0.88    1.11
   1   7  -9    1.46    0.72
   1   7  -9    0.84    0.53
   0  -7  -9    1.03    0.81
   0   7   9    1.44    1.43
   0   7  -9    2.66    1.14
   0   7  -9    2.71    0.75
  -1  -7  -9   -0.53    0.70
   1   7   9    1.98    1.37
  -1   7  -9   -0.12    0.60
  -1   7  -9    0.04    0.86
  -2  -7  -9    1.93    0.91
  -2  -7  -9    0.18    1.07
  -2   7  -9    2.07    0.99
  -2   7  -9    0.73    0.68
   2   7   9    0.63    1.27
  -3  -7  -9    1.07    0.75
  -3  -7  -9    0.83    1.12
  -3   7  -9    0.50    0.67
  -3   7  -9   -0.94    1.15
   3   7   9    1.11    1.23
  -4  -7  -9    0.13    1.12
  -4  -7  -9    0.14    0.46
   4   7   9    0.41    1.17
  -4   7  -9    0.27    0.65
  -4   7  -9   -3.64    1.53
  -5  -7  -9    4.30    1.36
  -5  -7  -9    1.65    0.76
  -5   7  -9    2.80    0.98
   5   7   9    4.55    1.47
  -5   7  -9    2.29    1.06
   6  -8  -9    1.31    0.79
  -6   8   9   -0.04    0.74
   6   8  -9    0.99    0.58
   6   8  -9   -1.10    1.38
   5  -8  -9    0.78    0.68
  -5   8   9    0.72    0.76
   5   8  -9    1.63    1.31
   5   8  -9   -0.16    0.58
   4  -8  -9    0.04    0.62
   4   8  -9   -0.09    0.57
  -4   8   9    1.96    0.89
   4   8  -9    2.08    1.33
   3  -8  -9    0.57    0.66
   3   8  -9    1.53    0.68
  -3   8   9    1.92    1.07
   3   8  -9    1.82    1.34
   2  -8  -9    3.78    1.14
  -2   8   9    4.13    1.49
   2   8  -9    7.25    1.85
   2   8  -9    2.79    1.09
   1  -8  -9    1.03    0.77
   1   8  -9    4.29    0.79
  -1   8   9    0.52    1.34
   1   8  -9    2.48    1.20
   1   8  -9   -0.44    0.78
   0  -8  -9    0.46    0.78
   0   8  -9    0.52    0.97
   0   8  -9    1.40    0.69
   0   8   9   -1.45    1.40
   0   8  -9    2.07    0.79
  -1  -8  -9    1.57    0.99
   1   8   9    0.56    1.41
  -1   8  -9    1.37    1.06
  -1   8  -9    1.70    0.71
  -2  -8  -9    0.88    1.18
  -2   8  -9    1.60    0.75
  -2   8  -9    0.44    1.05
   2   8   9    0.32    1.39
  -3  -8  -9    0.45    1.19
  -3   8  -9   -0.22    0.66
  -3   8  -9    0.08    1.11
   3   8   9    0.08    1.39
  -4  -8  -9    2.56    1.41
  -4  -8  -9    1.33    1.15
   4   8   9    3.33    1.40
  -4   8  -9    1.25    0.84
  -4   8  -9    2.17    1.78
   3  -9  -9    0.02    0.74
   3   9  -9    0.28    0.63
  -3   9   9    0.25    0.87
   3   9  -9   -2.09    1.20
   2  -9  -9    0.87    0.80
   2   9  -9    1.71    1.25
  -2   9   9   -0.30    1.00
   2   9  -9   -0.33    0.66
   1  -9  -9    3.14    1.04
  -1   9   9    3.26    1.33
   1   9  -9    1.28    0.99
   1   9  -9    4.16    1.22
   0  -9  -9    0.98    0.86
   0   9  -9    0.02    0.92
   0   9   9    1.63    1.30
   0   9  -9    2.33    1.14
  -1  -9  -9    1.32    0.99
  -1   9  -9   -0.19    1.07
  -1   9  -9    2.00    0.72
   1   9   9    1.39    1.37
 -10   0  10    2.24    1.32
  10   0 -10    1.59    0.86
   9   0 -10   -0.18    0.76
  -9   0  10   -0.66    1.20
  -8   0  10    0.20    0.73
   8   0 -10    1.03    0.86
   7   0 -10    3.25    1.03
  -7   0  10    1.41    1.00
   6   0 -10    1.99    0.59
  -5   0  10    8.41    2.51
   4   0 -10    4.56    1.15
  -4   0  10    4.13    2.03
   3   0 -10   -0.35    0.58
  -3   0  10    2.10    1.71
   2   0 -10    5.67    1.33
  -2   0  10    2.05    2.22
   1   0 -10    3.41    0.97
   0   0 -10   16.23    3.71
  -1   0 -10    0.03    0.49
   1   0  10   -6.82    3.21
  -2   0 -10    3.46    0.96
  -4   0 -10    8.64    2.06
  -5   0 -10   -0.09    0.67
  -6   0 -10    0.32    0.72
  -7   0 -10    1.53    0.80
 -10  -1  10    2.08    1.21
  10  -1 -10    4.03    1.16
  10   1 -10    5.15    1.24
 -10   1  10    4.90    1.43
   9  -1 -10   -1.33    0.72
  -9  -1  10   -0.01    0.71
   9   1 -10    0.13    0.78
  -9   1  10    0.55    1.17
  -8  -1  10    0.34    0.82
   8  -1 -10    0.22    0.86
  -8   1  10    1.72    1.24
   8   1 -10    2.73    0.92
  -7  -1  10    3.10    1.27
   7  -1 -10    6.45    1.37
  -7   1  10    3.20    2.36
   6  -1 -10    0.34    0.35
  -6  -1  10    0.14    0.88
  -6   1  10   -1.10    1.58
   5  -1 -10    0.95    0.47
  -5  -1  10    0.93    1.01
   5   1 -10    2.23    0.67
  -5   1  10    1.94    1.53
   4  -1 -10    0.79    0.55
  -4  -1  10    1.21    1.12
   4   1 -10    0.58    0.65
  -4   1  10    1.05    1.44
   3  -1 -10    0.44    0.57
  -3  -1  10    1.80    1.94
  -3   1  10    0.70    1.60
   3   1 -10    0.87    0.99
   2  -1 -10    0.76    0.63
  -2   1  10    1.57    1.68
   2   1 -10    1.43    0.87
   1  -1 -10    0.24    0.50
  -1  -1  10    0.85    2.66
  -1   1  10    1.30    1.53
   0  -1 -10   -0.04    0.58
   0   1  10    0.78    1.78
   0   1 -10    0.06    0.43
   0   1 -10    0.08    1.24
  -1  -1 -10    0.24    0.61
   1   1  10   -1.83    2.12
  -1   1 -10    0.73    0.56
  -2  -1 -10    2.08    0.70
   2   1  10    3.38    2.82
  -2   1 -10    1.27    0.64
   3   1  10   11.52    4.04
  -3   1 -10    6.48    1.61
  -4  -1 -10    1.43    0.68
  -4   1 -10    1.05    0.73
  -5  -1 -10   -0.22    0.58
  -5   1 -10   -0.12    0.68
  -6  -1 -10    0.96    0.72
  -6   1 -10    0.22    0.75
  -7  -1 -10    0.15    0.65
  -7   1 -10   -0.33    0.75
   9  -2 -10    2.97    0.99
  -9  -2  10    1.81    0.91
  -9   2  10    1.73    1.12
   8  -2 -10    0.43    0.89
  -8  -2  10   -0.70    0.65
  -8   2  10   -0.57    1.10
   7  -2 -10    5.40    1.17
  -7  -2  10    1.60    1.05
  -7   2  10    3.71    1.57
  -6  -2  10   -0.21    0.70
  -6   2  10    0.31    1.38
   5  -2 -10   -0.10    0.34
  -5  -2  10    0.35    0.84
   5   2 -10    0.07    0.68
  -5   2  10    2.06    2.69
   4  -2 -10    0.59    0.49
  -4  -2  10   -0.12    1.03
   4  -2 -10    1.37    0.56
   4   2 -10    1.58    0.76
  -4   2  10    0.72    1.46
   3  -2 -10    2.51    0.76
   3   2 -10    2.88    0.88
  -3   2  10    0.97    1.53
   2  -2 -10   -0.13    0.42
   2  -2 -10   -0.97    0.52
  -2   2  10   -1.53    1.32
   2   2 -10    0.46    0.58
   1  -2 -10    0.20    0.46
   1   2 -10    0.09    0.51
  -1   2  10   -0.05    1.37
   1   2 -10   -2.10    1.07
   0  -2 -10   13.09    2.81
   0   2 -10   14.76    2.94
   0   2  10   13.82    3.26
   0   2 -10   10.44    2.77
  -1  -2 -10    2.07    0.76
  -1   2 -10    1.96    1.29
   1   2  10    1.75    1.83
  -1   2 -10    2.13    0.71
  -2  -2 -10    0.67    0.61
   2   2  10   -0.36    2.03
  -2   2 -10    0.51    0.90
  -3  -2 -10   -0.15    0.75
   3   2  10    4.13    2.26
  -3   2 -10    0.66    0.54
  -4  -2 -10    0.31    0.55
   4   2  10   -5.43    2.62
  -4   2 -10   -0.73    0.56
  -5  -2 -10    0.84    0.61
  -5   2 -10    0.93    0.63
  -6  -2 -10   -0.15    0.59
  -6   2 -10   -1.13    0.64
  -6   2 -10    0.04    0.62
  -7  -2 -10   -0.98    0.66
  -7   2 -10    0.70    0.71
  -7   2 -10    0.03    0.70
  -9  -3  10   -0.62    0.75
   9  -3 -10    1.17    0.97
  -9   3  10    0.16    0.88
  -8  -3  10    0.58    0.86
   8  -3 -10    1.11    1.04
  -8   3  10    3.40    1.13
  -8   3  10    0.97    1.61
   7  -3 -10   -0.08    0.93
  -7   3  10    0.24    1.15
  -7   3  10   -1.75    1.31
  -6  -3  10    0.14    0.88
   6  -3 -10    0.75    0.46
  -5  -3  10   -0.14    0.88
   5  -3 -10    0.09    0.40
  -5   3  10    2.05    1.36
  -4  -3  10   -1.35    1.04
   4  -3 -10    1.64    0.52
   3  -3 -10    1.28    0.55
   3  -3 -10    0.45    0.65
   3   3 -10    2.94    0.73
  -3   3  10    2.68    1.34
   2  -3 -10    0.74    0.59
   2  -3 -10    1.23    0.57
   2   3 -10    1.15    1.17
  -2   3  10    0.23    1.44
   2   3 -10    0.81    0.59
   1  -3 -10    0.45    0.43
   1  -3 -10    0.18    0.56
  -1   3  10   -1.96    1.21
   1   3 -10   -0.09    1.09
   1   3 -10   -0.08    0.56
   0  -3 -10    0.56    0.48
   0   3  10    0.24    1.30
   0   3 -10   -1.46    1.02
   0   3 -10    0.45    0.43
  -1  -3 -10    0.06    0.51
  -1   3 -10   -0.05    1.07
   1   3  10    0.09    1.36
  -2  -3 -10    1.00    0.65
  -2   3 -10    0.48    0.47
   2   3  10    3.15    1.58
  -3  -3 -10   -0.06    0.53
   3   3  10    0.71    1.80
  -3   3 -10    0.14    0.50
  -4  -3 -10   -0.22    0.51
   4   3  10    2.42    2.15
  -4   3 -10   -0.22    0.50
  -5  -3 -10   -0.20    0.53
  -5   3 -10   -0.40    0.56
   5   3  10   -3.22    2.76
  -6  -3 -10   -0.92    0.65
  -6   3 -10   -0.25    0.67
  -6   3 -10    0.69    0.68
   6   3  10    1.67    3.22
  -7  -3 -10   -0.29    0.68
  -7   3 -10    1.21    0.67
  -7   3 -10    0.25    0.74
  -9  -4  10    0.97    0.94
   9  -4 -10    0.00    1.01
  -9   4  10   -0.23    0.76
  -9   4  10    1.30    1.74
   8  -4 -10    1.51    1.09
  -8  -4  10    0.36    0.95
  -8   4  10    0.90    0.93
  -8   4  10    1.12    1.45
   7  -4 -10   -0.08    0.42
  -7  -4  10  -13.30    3.12
  -7   4  10    0.45    1.18
  -7   4  10    0.65    0.96
   6  -4 -10    0.29    0.44
  -6   4  10    1.57    1.09
   5  -4 -10    0.02    0.45
  -5   4  10   -1.26    1.93
  -4   4  10    0.70    1.55
   4   4 -10    1.98    0.74
   4   4 -10    1.52    1.53
   3  -4 -10    0.66    0.48
   3   4 -10    0.60    1.57
  -3   4  10   -0.09    1.44
   3   4 -10    0.64    0.56
   2  -4 -10    0.70    0.53
   2  -4 -10    0.21    0.62
   2   4 -10    1.40    1.13
   2   4 -10    1.01    0.55
   1  -4 -10    0.19    0.51
   1  -4 -10    0.27    0.52
   1   4 -10    0.47    0.48
   1   4 -10   -0.95    1.02
  -1   4  10    0.40    1.76
   0  -4 -10    1.51    0.84
   0  -4 -10    1.14    0.70
   0   4  10    0.44    1.52
   0   4 -10    0.86    1.08
   0   4 -10    1.59    0.55
  -1  -4 -10    3.70    0.99
  -1  -4 -10    5.50    1.19
  -1   4 -10    2.99    0.93
  -1   4 -10    1.57    1.93
  -2  -4 -10    0.96    0.94
  -2   4 -10   -2.10    1.38
  -2   4 -10    1.68    0.56
   2   4  10    0.78    1.34
  -3  -4 -10   -0.28    0.53
   3   4  10   -0.64    1.45
  -3   4 -10    0.40    0.44
  -4  -4 -10   -0.24    0.52
  -4   4 -10    0.17    0.57
   4   4  10    0.69    1.71
  -5  -4 -10   -0.21    0.51
  -5   4 -10    0.25    0.59
   5   4  10   -0.46    2.00
  -6  -4 -10   -0.22    0.58
   6   4  10    0.86    2.59
  -6   4 -10    0.96    0.80
  -6   4 -10    1.02    0.67
   8  -5 -10   -0.05    0.50
  -8  -5  10    5.70    4.39
  -8   5  10   -0.08    1.34
   8   5 -10    0.99    1.50
  -8   5  10    0.97    0.79
  -7  -5  10   -4.00    4.21
   7  -5 -10    0.25    0.50
  -7   5  10   -0.61    1.10
  -7   5  10    0.45    0.89
   7   5 -10   -0.36    1.51
   6   5 -10    3.71    1.55
   6   5 -10    1.00    0.90
  -6   5  10    2.88    1.19
   5  -5 -10    0.23    0.47
   5   5 -10    1.46    1.42
  -5   5  10   -0.66    1.11
   4  -5 -10    0.17    0.46
   4   5 -10    0.15    0.59
   4   5 -10    1.73    1.44
  -4   5  10   -1.51    1.29
   3  -5 -10    0.07    0.51
  -3   5  10    0.97    2.95
   3   5 -10    0.50    1.09
   3   5 -10    0.48    0.52
  -2   5  10    1.76    2.21
   2   5 -10    4.23    0.96
   2   5 -10    1.90    1.36
   1  -5 -10   -4.75    1.54
  -1   5  10    0.83    1.48
   1   5 -10    0.59    0.49
   1   5 -10    1.62    1.07
   0  -5 -10    5.45    1.70
   0  -5 -10    8.27    1.84
   0   5  10    6.81    2.12
   0   5 -10    8.24    1.69
   0   5 -10    7.59    2.05
  -1  -5 -10    0.59    0.84
  -1  -5 -10    0.06    0.66
  -1   5 -10    0.08    0.48
   1   5  10    0.61    1.52
  -2  -5 -10    0.05    0.65
  -2  -5 -10    0.30    0.96
   2   5  10    0.82    1.24
  -2   5 -10    1.04    0.56
  -2   5 -10   -2.61    1.97
  -3  -5 -10    3.70    0.81
   3   5  10    0.56    1.36
  -3   5 -10    1.88    0.74
  -4  -5 -10    2.33    0.62
   4   5  10   -0.20    1.42
  -4   5 -10    0.88    0.61
  -5  -5 -10   -0.50    0.52
   5   5  10    1.44    1.60
  -5   5 -10    0.42    0.58
  -6  -5 -10   -0.73    0.57
  -6   5 -10    1.09    0.63
   6   5  10    2.91    3.55
   7  -6 -10    0.45    0.56
   7   6 -10    0.72    0.78
  -7   6  10    0.19    0.80
  -7   6  10    0.34    1.05
   7   6 -10   -0.10    1.44
   6  -6 -10    0.37    0.55
   6   6 -10   -0.82    0.72
   6   6 -10    2.13    1.45
  -6   6  10   -0.49    0.87
   5  -6 -10   -0.10    0.59
   5   6 -10   -0.89    0.83
   5   6 -10    0.85    1.36
  -5   6  10   -0.81    1.07
   4  -6 -10    0.28    0.53
  -4   6  10   -1.59    1.14
   4   6 -10    2.25    1.28
   3  -6 -10    0.04    0.55
   3   6 -10    0.15    0.47
   3   6 -10   -0.91    1.13
  -3   6  10    2.01    1.32
   2  -6 -10    0.74    0.58
   2   6 -10    0.01    0.52
   2   6 -10    0.93    1.08
  -2   6  10    1.77    1.39
   1  -6 -10    2.99    1.02
   1   6 -10    4.66    0.95
   1   6 -10    2.03    1.33
  -1   6  10    2.48    1.63
   0  -6 -10    2.95    0.97
   0   6  10    1.45    1.42
   0   6 -10    2.90    0.78
   0   6 -10    1.62    1.19
  -1  -6 -10   -0.65    0.72
  -1  -6 -10    0.00    0.86
  -1   6 -10   -0.06    0.92
   1   6  10   -0.05    1.19
  -1   6 -10   -0.08    0.49
  -2  -6 -10    2.64    0.76
  -2  -6 -10    1.23    1.05
  -2   6 -10    1.41    1.20
   2   6  10    1.46    1.32
  -2   6 -10    0.70    0.63
  -3  -6 -10    8.62    2.25
  -3   6 -10    9.94    2.22
  -3   6 -10    5.13    3.74
   3   6  10   10.75    2.45
  -4  -6 -10    0.23    0.59
   4   6  10    2.11    1.32
  -4   6 -10   -0.53    0.63
  -5  -6 -10    0.49    0.54
  -5   6 -10    1.35    0.75
   5   6  10    0.99    1.67
   6  -7 -10    1.39    0.71
  -6   7  10    0.14    0.80
   5  -7 -10    0.13    0.54
  -5   7  10   -1.11    0.83
   5   7 -10    0.38    0.74
   5   7 -10    1.22    1.37
   4  -7 -10    0.34    0.58
   4   7 -10   -0.01    1.17
  -4   7  10    1.24    1.04
   3  -7 -10    1.14    0.70
  -3   7  10    2.93    1.27
   3   7 -10    1.61    1.32
   2  -7 -10    1.62    0.76
   2   7 -10    2.20    1.22
  -2   7  10    0.79    1.31
   2   7 -10    2.55    0.66
   1  -7 -10    2.50    1.00
  -1   7  10    3.33    1.51
   1   7 -10    2.33    1.30
   1   7 -10    3.89    0.91
   0  -7 -10    0.75    0.79
   0   7 -10    1.82    0.63
   0   7  10    3.29    1.49
   0   7 -10   -0.22    1.03
  -1  -7 -10    0.22    0.93
  -1   7 -10   -0.03    0.55
  -1   7 -10    1.21    1.02
   1   7  10    0.83    1.39
  -2  -7 -10   -0.39    1.02
  -2   7 -10    0.19    0.60
   2   7  10   -0.28    1.38
  -2   7 -10   -0.76    1.20
  -3  -7 -10    0.02    0.92
  -3  -7 -10    2.54    1.22
   3   7  10    3.71    1.37
  -3   7 -10   -4.08    1.84
  -3   7 -10    1.39    0.68
   3  -8 -10    0.34    0.67
  -3   8  10    0.70    0.99
   3   8 -10    0.51    1.63
   2  -8 -10   -0.07    0.61
  -2   8  10    1.96    1.15
   2   8 -10    0.21    1.07
   1  -8 -10    0.88    0.75
   1   8 -10    2.57    1.14
  -1   8  10    4.18    1.40
   0  -8 -10   11.34    2.30
   0   8 -10    9.09    2.33
   0   8  10    9.24    2.54
   0   8 -10    8.45    2.14
  -1   8 -10    1.73    1.16
  -1   8 -10    1.85    0.68
   1   8  10   -0.23    1.35
  -8   0  11   -0.11    1.51
   8   0 -11    0.38    0.41
  -7   0  11   -1.79    1.51
  -6   0  11   -0.68    1.60
  -5   0  11    0.49    1.76
  -4   0  11    2.59    3.66
   4   0 -11    1.44    0.65
  -3   0  11    2.38    2.08
  -2   0  11   -3.14    2.23
   1   0 -11    0.13    0.62
  -1   0  11   -0.92    2.59
   0   0  11    6.57    3.76
  -1   0 -11   -0.01    0.51
  -2   0 -11   -0.10    0.51
  -3   0 -11   -0.55    0.58
  -4   0 -11    0.32    0.58
  -5   0 -11   -0.12    0.62
  -6   0 -11   -0.01    0.70
  -8  -1  11   -0.44    1.56
   8  -1 -11   -0.12    0.38
  -8   1  11   -0.29    1.35
  -7  -1  11    0.89    1.69
   7  -1 -11    0.45    0.43
  -7   1  11    4.47    1.54
  -6  -1  11   -2.16    1.75
   6  -1 -11    1.00    0.47
  -6   1  11    2.19    1.54
  -5  -1  11    0.63    1.82
  -5   1  11    3.69    2.77
  -4  -1  11   12.10    3.59
  -4   1  11    9.49    3.49
   4   1 -11   13.95    2.95
   3  -1 -11   -0.36    0.55
  -3  -1  11    0.85    2.26
   3   1 -11    0.14    0.64
  -3   1  11   -3.68    2.29
  -2  -1  11    6.80    3.30
   2  -1 -11    6.99    1.90
   2   1 -11    8.55    1.91
  -2   1  11   12.22    2.74
  -1   1  11    0.43    2.08
   1   1 -11    1.40    0.70
   1   1 -11    1.78    1.58
   0  -1 -11    5.32    1.17
   0   1 -11    4.49    1.16
   0   1 -11    0.32    1.90
   0   1  11    4.85    2.71
   1   1  11   -7.96    3.11
  -2  -1 -11   -0.49    0.54
  -2   1 -11    0.91    0.58
  -3  -1 -11    0.62    0.57
  -3   1 -11   -0.26    0.51
  -4  -1 -11   -0.25    0.59
  -4   1 -11   -0.33    0.66
  -5  -1 -11    2.90    0.94
  -5   1 -11    2.94    1.01
  -6  -1 -11    3.73    1.19
  -6   1 -11    4.67    1.18
   8  -2 -11    0.09    0.39
  -8  -2  11    0.11    1.07
  -8   2  11    0.01    1.27
   7  -2 -11    1.22    0.52
  -7  -2  11    1.95    1.10
  -7   2  11    2.54    1.39
  -6  -2  11    2.02    1.15
  -6   2  11    0.76    1.50
  -5  -2  11    1.28    1.16
   5  -2 -11    0.96    0.48
  -5   2  11    0.24    1.65
   4  -2 -11    0.24    0.43
  -4  -2  11    3.27    2.38
   4  -2 -11   -1.08    0.52
   4   2 -11    0.87    0.67
  -4   2  11   -1.47    1.98
   3  -2 -11    0.19    0.52
   3   2 -11    0.31    0.62
  -3   2  11    0.44    1.65
   2  -2 -11    3.00    1.00
   2   2 -11    5.03    1.06
  -2   2  11    0.48    3.27
   1   2 -11    0.49    1.18
   1   2 -11    0.13    0.58
   0  -2 -11    5.30    1.15
   0   2  11    2.43    2.62
   0   2 -11    4.04    1.14
   0   2 -11    3.78    1.96
  -1  -2 -11   -0.20    0.55
  -1   2 -11   -0.56    0.53
  -2  -2 -11    0.07    0.57
  -2   2 -11   -0.07    0.53
   2   2  11   -1.33    3.75
  -3  -2 -11    3.11    0.95
  -3   2 -11    3.90    0.99
  -4  -2 -11    0.08    0.59
  -4   2 -11    0.80    0.61
  -5  -2 -11    1.23    0.73
  -5   2 -11    2.04    0.75
  -8  -3  11    1.23    1.25
   8  -3 -11    0.62    0.42
  -8   3  11    0.65    1.11
   7  -3 -11    1.13    0.51
  -7  -3  11    0.37    1.31
  -7   3  11    0.86    1.24
  -7   3  11    2.23    1.93
   6  -3 -11    0.23    0.43
  -6  -3  11   -1.29    1.23
  -6   3  11   -1.33    1.28
   5  -3 -11    0.00    0.41
  -5   3  11    1.34    1.55
   4  -3 -11    0.45    0.52
  -4   3  11    3.11    1.68
   4   3 -11    1.45    0.71
   3  -3 -11    2.92    1.17
   3  -3 -11    4.28    1.14
   3   3 -11    5.15    1.46
   3   3 -11    6.68    1.23
   2  -3 -11   11.64    2.75
   2  -3 -11   11.10    2.76
  -2   3  11   13.39    3.51
   2   3 -11   14.93    2.94
   2   3 -11   13.07    2.78
   1  -3 -11    0.29    0.83
   1   3 -11    0.02    0.52
  -1   3  11   -4.08    1.67
   1   3 -11   -1.01    1.19
   0  -3 -11   15.98    3.10
   0   3  11   10.91    3.59
   0   3 -11   12.07    3.56
   0   3 -11   12.63    3.10
  -1  -3 -11   -0.56    0.53
   1   3  11   -2.23    2.44
  -2  -3 -11   -0.74    0.54
   2   3  11    5.19    2.75
  -2   3 -11    0.79    0.46
  -3  -3 -11    3.52    0.97
   3   3  11    2.62    2.43
  -3   3 -11    3.31    0.92
  -4  -3 -11   -0.23    0.56
  -4   3 -11    0.15    0.55
   4   3  11   -2.78    2.80
   5   3  11    7.00    4.56
   7  -4 -11    1.40    0.57
  -7  -4  11    0.95    1.64
  -7   4  11    3.24    1.56
  -7   4  11    0.36    1.20
   7   4 -11    4.03    1.42
   6  -4 -11    0.92    0.51
  -6   4  11    0.55    1.33
   6   4 -11    2.44    1.26
   5  -4 -11   -0.26    0.40
  -5   4  11   -1.02    1.45
   5   4 -11   -0.84    1.23
   4  -4 -11    3.18    1.09
  -4   4  11    5.46    1.86
   4   4 -11    5.26    1.13
   4   4 -11    5.91    1.51
   3  -4 -11    0.25    0.47
  -3   4  11   -0.65    1.60
   3   4 -11    0.28    0.56
   3   4 -11    2.80    1.11
   2  -4 -11    4.06    1.15
   2  -4 -11    6.96    1.59
   2   4 -11    4.55    1.13
  -2   4  11    0.81    1.88
   2   4 -11    6.06    1.48
   1  -4 -11    8.80    2.09
   1  -4 -11    9.37    2.07
   1   4 -11    9.74    2.24
   1   4 -11    9.06    2.04
  -1   4  11    4.76    2.55
   0  -4 -11   -0.74    0.54
   0   4 -11    0.18    0.49
   0   4 -11   -2.09    1.20
   0   4  11    0.00    1.47
  -1  -4 -11    0.61    0.61
   1   4  11    1.62    1.48
  -1   4 -11   -0.07    0.50
  -1   4 -11    1.67    1.47
  -2  -4 -11    2.65    0.92
   2   4  11    6.01    1.81
  -2   4 -11    3.13    0.88
  -3  -4 -11    3.63    1.09
   3   4  11    9.46    2.08
  -3   4 -11    3.91    1.09
  -4  -4 -11   -0.91    0.53
   4   4  11    1.28    2.24
  -4   4 -11   -0.50    0.56
   6  -5 -11    0.40    0.48
  -6   5  11   -0.50    1.13
   6   5 -11   -0.85    1.26
   5  -5 -11    5.39    1.43
   5   5 -11   11.67    2.05
  -5   5  11    3.44    1.88
   4  -5 -11    0.69    0.53
  -4   5  11    1.35    1.55
   4   5 -11    0.65    1.04
   3  -5 -11    3.68    1.12
   3   5 -11    4.26    1.43
   3   5 -11    5.70    1.15
  -3   5  11    2.96    1.88
   2  -5 -11    0.39    0.54
   2   5 -11    0.63    0.49
  -2   5  11   -0.92    1.52
   2   5 -11    0.75    0.98
   1  -5 -11    0.44    0.63
   1   5 -11   -0.01    0.44
   1   5 -11    0.25    1.05
  -1   5  11   -0.28    1.54
   0  -5 -11    0.60    0.77
   0  -5 -11    0.77    0.72
   0   5 -11    0.61    0.51
   0   5  11    1.09    1.38
   0   5 -11   -0.06    1.12
  -1  -5 -11    0.57    0.67
  -1   5 -11   -0.19    0.49
  -1   5 -11    1.25    1.19
   1   5  11   -2.22    1.30
  -2  -5 -11    0.62    0.61
  -2   5 -11    0.62    0.58
   2   5  11    2.84    1.35
  -3  -5 -11    0.99    0.58
  -3   5 -11   -0.20    0.60
   3   5  11   -2.22    1.60
   5  -6 -11    3.37    0.85
   5   6 -11    2.70    1.38
  -5   6  11   -0.07    1.19
   4  -6 -11    0.70    0.53
   4   6 -11    1.39    1.06
  -4   6  11   -0.32    1.23
   3  -6 -11    2.87    0.88
  -3   6  11    1.14    1.54
   3   6 -11    4.51    1.23
   2  -6 -11    0.47    0.55
  -2   6  11    0.35    1.42
   2   6 -11   -0.20    0.97
   2   6 -11    0.63    0.46
   1  -6 -11    2.91    1.01
   1   6 -11    2.49    1.29
   1   6 -11    3.79    0.90
  -1   6  11    3.81    1.70
   0  -6 -11    0.97    0.77
   0   6 -11    0.38    0.47
   0   6 -11    1.47    1.07
   0   6  11   -0.17    1.33
  -1  -6 -11   -0.24    0.87
  -1   6 -11    1.32    1.33
  -1   6 -11    0.71    0.54
   1   6  11    2.98    1.49
  -2  -6 -11   -1.64    0.95
  -2   6 -11    0.69    0.51
   2   6  11   -1.06    1.41
  -7   0  12    2.78    2.27
  -6   0  12    4.76    2.11
  -5   0  12    0.14    1.85
  -4   0  12    4.78    2.59
   4   0 -12    6.20    1.45
  -3   0  12    1.52    2.42
  -2   0  12   -8.55    4.49
   1   0 -12   -4.89    2.92
   0   0 -12   15.34    3.45
  -1   0 -12    1.16    0.64
  -2   0 -12   15.37    3.45
  -3   0 -12    0.38    0.57
  -4   0 -12    0.01    0.54
  -6  -1  12   -0.45    2.01
  -6   1  12    0.80    1.78
  -5  -1  12    1.53    2.12
  -5   1  12   -1.34    1.83
  -4  -1  12   -1.38    2.23
   4  -1 -12    0.03    0.06
   4   1 -12    1.05    0.59
  -4   1  12    0.45    2.02
  -3  -1  12    1.78    3.32
   3  -1 -12    1.67    0.74
  -3   1  12    2.98    2.16
   3   1 -12    2.76    0.80
   2  -1 -12   -0.14    0.55
   2   1 -12    0.06    1.23
   2   1 -12   -0.68    0.63
  -2   1  12    0.46    2.36
   1  -1 -12    2.76    0.93
  -1   1  12    0.15    2.93
   1   1 -12    2.76    1.72
   1   1 -12    3.30    0.91
   0  -1 -12   -0.34    0.57
   0   1  12   -2.83    3.54
   0   1 -12   -0.22    0.62
  -1  -1 -12    2.61    0.86
  -1   1 -12    3.58    0.93
  -2  -1 -12   -0.32    0.55
  -2   1 -12    1.26    0.54
  -3  -1 -12    5.08    1.24
  -3   1 -12    4.78    1.26
  -4  -1 -12   -0.40    0.48
  -4   1 -12    0.95    0.62
   6  -2 -12    0.15    0.47
  -6  -2  12    1.36    2.69
  -6   2  12    0.86    1.74
  -5  -2  12    2.58    2.68
  -5   2  12    3.96    2.03
  -4   2  12   -1.54    1.76
   3  -2 -12   -0.51    0.58
  -3   2  12    0.92    2.24
   3   2 -12    2.37    1.04
   3   2 -12    1.20    0.64
   2  -2 -12    0.57    0.62
  -2   2  12   -0.10    2.22
   2   2 -12    1.30    0.65
   2   2 -12    0.68    1.20
   1  -2 -12    0.58    0.62
   1   2 -12    0.03    0.59
  -1   2  12   -0.37    2.38
   1   2 -12   -0.77    1.38
   0  -2 -12    0.78    0.60
   0   2 -12    0.34    0.62
   0   2  12    0.44    3.05
  -1  -2 -12    0.96    0.49
  -1   2 -12   -0.53    0.49
   1   2  12    0.95    3.17
  -2  -2 -12    1.72    0.64
   2   2  12   -5.41    3.68
  -2   2 -12    1.04    0.67
  -3  -2 -12    4.24    1.19
  -3   2 -12    5.57    1.26
   5  -3 -12    1.75    0.59
   5   3 -12    0.18    1.11
  -5   3  12    2.05    1.86
  -4   3  12   -1.26    1.92
   4   3 -12   -0.32    0.62
   4   3 -12    0.35    1.01
   3  -3 -12    4.48    2.45
   3   3 -12    8.63    2.26
   3   3 -12   11.86    2.12
  -3   3  12    3.44    2.78
   2  -3 -12   -0.40    0.65
   2   3 -12   -0.55    1.03
  -2   3  12   -4.45    2.02
   2   3 -12   -0.04    0.53
   1  -3 -12    0.54    0.64
  -1   3  12   -3.31    2.18
   1   3 -12    0.40    1.27
   1   3 -12    0.28    0.54
   0  -3 -12    3.05    0.98
   0   3  12    2.72    2.36
   0   3 -12    3.82    0.94
   0   3 -12   -5.92    3.96
  -1  -3 -12    0.92    0.56
   1   3  12   -1.18    2.38
  -1   3 -12    0.54    0.61
   2   3  12    5.04    3.18
   3   3  12   10.80    6.31
   4  -4 -12    0.83    0.50
  -4   4  12    1.65    2.00
   4   4 -12    0.42    0.94
   3  -4 -12    0.25    0.50
   3   4 -12   -0.33    0.92
  -3   4  12   -5.04    1.90
   3   4 -12    0.71    0.53
   2   4 -12    2.02    1.06
   2   4 -12    0.90    0.61
  -2   4  12   -0.02    2.00
   1  -4 -12    0.49    0.93
   1   4 -12    2.99    1.28
  -1   4  12    2.06    1.87
   1   4 -12    1.67    0.66
   0  -4 -12    3.09    0.81
   0   4  12   -0.02    1.99
   0   4 -12    0.56    0.59
   0   4 -12    0.81    1.76
  -1  -4 -12    4.57    1.22
  -1   4 -12    4.68    1.18
   1   4  12    5.29    2.36
  -2  -4 -12   -0.51    0.57
  -2   4 -12    0.28    0.57
   2  -5 -12   -0.05    0.56
  -2   5  12   -0.08    1.91
   2   5 -12   -1.37    0.99
   2   5 -12    0.50    0.51
  -1   5  12   -0.29    1.90
   1   5 -12    1.72    1.45
   1   5 -12    1.80    0.60
  -3   0  13   -0.39    3.60
   3   0 -13    0.27    0.56
   2   0 -13   -0.50    0.58
   1   0 -13    0.30    0.65
   2  -1 -13   -0.09    0.63
   2   1 -13    1.89    0.63
   1  -1 -13    4.59    1.45
   1   1 -13    7.32    1.48
  -1   1  13    9.27    6.20
   0   0   0    0.00    0.00
;
_shelx_hkl_checksum   54624

