 
data_20MCD010
 
_audit_creation_method            'SHELXL-2018/3'
_shelx_SHELXL_version_number      '2018/3'
_chemical_name_systematic         ?
_chemical_name_common             ?
_chemical_melting_point           ?
_chemical_formula_moiety          ?
_chemical_formula_sum
 'C17 H26 N2 O2' 
_chemical_formula_weight          290.40

loop_
 _atom_type_symbol
 _atom_type_description
 _atom_type_scat_dispersion_real
 _atom_type_scat_dispersion_imag
 _atom_type_scat_source
 'C'  'C'   0.0181   0.0091
 'International Tables Vol C Tables 4.2.6.8 and 6.1.1.4'
 'H'  'H'   0.0000   0.0000
 'International Tables Vol C Tables 4.2.6.8 and 6.1.1.4'
 'N'  'N'   0.0311   0.0180
 'International Tables Vol C Tables 4.2.6.8 and 6.1.1.4'
 'O'  'O'   0.0492   0.0322
 'International Tables Vol C Tables 4.2.6.8 and 6.1.1.4'
 
_space_group_crystal_system       orthorhombic
_space_group_IT_number            19
_space_group_name_H-M_alt         'P 21 21 21'
_space_group_name_Hall            'P 2ac 2ab'
 
_shelx_space_group_comment
;
The symmetry employed for this shelxl refinement is uniquely defined
by the following loop, which should always be used as a source of
symmetry information in preference to the above space-group names.
They are only intended as comments.
;
 
loop_
 _space_group_symop_operation_xyz
 'x, y, z'
 'x+1/2, -y+1/2, -z'
 '-x, y+1/2, -z+1/2'
 '-x+1/2, -y, z+1/2'
 
_cell_length_a                    7.8556(2)
_cell_length_b                    10.0508(3)
_cell_length_c                    21.0196(6)
_cell_angle_alpha                 90
_cell_angle_beta                  90
_cell_angle_gamma                 90
_cell_volume                      1659.60(8)
_cell_formula_units_Z             4
_cell_measurement_temperature     100(2)
_cell_measurement_reflns_used     ?
_cell_measurement_theta_min       ?
_cell_measurement_theta_max       ?
 
_exptl_crystal_description        ?
_exptl_crystal_colour             ?
_exptl_crystal_density_meas       ?
_exptl_crystal_density_method     ?
_exptl_crystal_density_diffrn     1.162          
_exptl_crystal_F_000              632
_exptl_transmission_factor_min    ?
_exptl_transmission_factor_max    ?
_exptl_crystal_size_max           0.140
_exptl_crystal_size_mid           0.090
_exptl_crystal_size_min           0.050
_exptl_absorpt_coefficient_mu     0.602
_shelx_estimated_absorpt_T_min    0.920
_shelx_estimated_absorpt_T_max    0.971
_exptl_absorpt_correction_type    ?
_exptl_absorpt_correction_T_min   ?
_exptl_absorpt_correction_T_max   ?
_exptl_absorpt_process_details    ?
_exptl_absorpt_special_details    ?
_diffrn_ambient_temperature       100(2)
_diffrn_radiation_wavelength      1.54178
_diffrn_radiation_type            CuK\a
_diffrn_source                    ?
_diffrn_measurement_device_type   ?
_diffrn_measurement_method        ?
_diffrn_detector_area_resol_mean  ?
_diffrn_reflns_number             20336
_diffrn_reflns_av_unetI/netI      0.0396
_diffrn_reflns_av_R_equivalents   0.0631
_diffrn_reflns_limit_h_min        -9
_diffrn_reflns_limit_h_max        9
_diffrn_reflns_limit_k_min        -12
_diffrn_reflns_limit_k_max        12
_diffrn_reflns_limit_l_min        -26
_diffrn_reflns_limit_l_max        26
_diffrn_reflns_theta_min          4.206
_diffrn_reflns_theta_max          74.527
_diffrn_reflns_theta_full         67.679
_diffrn_measured_fraction_theta_max   0.999
_diffrn_measured_fraction_theta_full  1.000
_diffrn_reflns_Laue_measured_fraction_max    0.999
_diffrn_reflns_Laue_measured_fraction_full   1.000
_diffrn_reflns_point_group_measured_fraction_max   0.996
_diffrn_reflns_point_group_measured_fraction_full  1.000
_reflns_number_total              3374
_reflns_number_gt                 2566
_reflns_threshold_expression      'I > 2\s(I)'
_reflns_Friedel_coverage          0.723
_reflns_Friedel_fraction_max      0.992
_reflns_Friedel_fraction_full     1.000
 
_reflns_special_details
;
 Reflections were merged by SHELXL according to the crystal
 class for the calculation of statistics and refinement.
 
 _reflns_Friedel_fraction is defined as the number of unique
 Friedel pairs measured divided by the number that would be
 possible theoretically, ignoring centric projections and
 systematic absences.
;
 
_computing_data_collection        ?
_computing_cell_refinement        ?
_computing_data_reduction         ?
_computing_structure_solution     'SHELXT 2014/5 (Sheldrick, 2014)'
_computing_structure_refinement 'SHELXL-2018/3 (Sheldrick, 2018)'
_computing_molecular_graphics     ?
_computing_publication_material   ?
_refine_special_details           ?
_refine_ls_structure_factor_coef  Fsqd
_refine_ls_matrix_type            full
_refine_ls_weighting_scheme       calc
_refine_ls_weighting_details
'w=1/[\s^2^(Fo^2^)+(0.0609P)^2^+0.1314P] where P=(Fo^2^+2Fc^2^)/3'
_atom_sites_solution_primary      ?
_atom_sites_solution_secondary    ?
_atom_sites_solution_hydrogens    geom
_refine_ls_hydrogen_treatment     constr
_refine_ls_extinction_method      none
_refine_ls_extinction_coef        .
_refine_ls_abs_structure_details
;
 Flack x determined using 907 quotients [(I+)-(I-)]/[(I+)+(I-)]
 (Parsons, Flack and Wagner, Acta Cryst. B69 (2013) 249-259).
;
_refine_ls_abs_structure_Flack    -0.09(18)
_chemical_absolute_configuration  ?
_refine_ls_number_reflns          3374
_refine_ls_number_parameters      388
_refine_ls_number_restraints      766
_refine_ls_R_factor_all           0.0611
_refine_ls_R_factor_gt            0.0429
_refine_ls_wR_factor_ref          0.1206
_refine_ls_wR_factor_gt           0.1082
_refine_ls_goodness_of_fit_ref    1.050
_refine_ls_restrained_S_all       0.980
_refine_ls_shift/su_max           0.000
_refine_ls_shift/su_mean          0.000
 
loop_
 _atom_site_label
 _atom_site_type_symbol
 _atom_site_fract_x
 _atom_site_fract_y
 _atom_site_fract_z
 _atom_site_U_iso_or_equiv
 _atom_site_adp_type
 _atom_site_occupancy
 _atom_site_site_symmetry_order  
 _atom_site_calc_flag
 _atom_site_refinement_flags_posn
 _atom_site_refinement_flags_adp
 _atom_site_refinement_flags_occupancy
 _atom_site_disorder_assembly
 _atom_site_disorder_group
N1_1^a N 0.4521(17) 0.674(2) 0.1055(7) 0.055(3) Uani 0.489(8) 1 d D U P A 1
C2_1^a C 0.343(2) 0.636(2) 0.0511(8) 0.052(3) Uani 0.489(8) 1 d D U P A 1
H2A_1^a H 0.281530 0.715124 0.035085 0.063 Uiso 0.489(8) 1 calc R U P A 1
H2B_1^a H 0.256975 0.569843 0.065212 0.063 Uiso 0.489(8) 1 calc R U P A 1
C3_1^a C 0.4499(16) 0.5766(12) -0.0019(6) 0.044(3) Uani 0.489(8) 1 d D U P A 1
C4_1^a C 0.584(2) 0.4878(12) 0.0271(8) 0.046(3) Uani 0.489(8) 1 d D U P A 1
H4A_1^a H 0.645659 0.441994 -0.007718 0.055 Uiso 0.489(8) 1 calc R U P A 1
H4B_1^a H 0.526843 0.418808 0.052933 0.055 Uiso 0.489(8) 1 calc R U P A 1
C5_1^a C 0.715(2) 0.5598(16) 0.0691(8) 0.041(3) Uani 0.489(8) 1 d D U P A 1
H5_1^a H 0.800725 0.605508 0.041605 0.049 Uiso 0.489(8) 1 calc R U P A 1
C6_1^a C 0.6290(16) 0.6597(13) 0.1106(8) 0.037(3) Uani 0.489(8) 1 d D U P A 1
C7_1^a C 0.6831(15) 0.7281(17) 0.1639(8) 0.042(3) Uani 0.489(8) 1 d D U P A 1
C8_1^a C 0.5283(17) 0.7807(17) 0.1927(5) 0.063(3) Uani 0.489(8) 1 d D U P A 1
H8_1^a H 0.520499 0.825464 0.232438 0.076 Uiso 0.489(8) 1 calc R U P A 1
C9_1^a C 0.3967(16) 0.7542(17) 0.1524(5) 0.067(3) Uani 0.489(8) 1 d D U P A 1
H9_1^a H 0.283959 0.787140 0.156700 0.081 Uiso 0.489(8) 1 calc R U P A 1
O10_1^a O 0.5452(17) 0.6804(10) -0.0314(5) 0.062(3) Uani 0.489(8) 1 d D U P A 1
H10_1^a H 0.496410 0.703862 -0.065167 0.074 Uiso 0.489(8) 1 calc R U P A 1
C11_1^a C 0.3347(11) 0.5076(10) -0.0514(5) 0.055(2) Uani 0.489(8) 1 d D U P A 1
H11A_1^a H 0.263561 0.577069 -0.071640 0.066 Uiso 0.489(8) 1 calc R U P A 1
H11B_1^a H 0.409139 0.470384 -0.084983 0.066 Uiso 0.489(8) 1 calc R U P A 1
C12_1^a C 0.2214(9) 0.4014(8) -0.0299(3) 0.062(2) Uani 0.489(8) 1 d D U P A 1
H12_1^a H 0.270260 0.321753 -0.013830 0.075 Uiso 0.489(8) 1 calc R U P A 1
C13_1^a C 0.0554(11) 0.4116(11) -0.0319(5) 0.076(3) Uani 0.489(8) 1 d D U P A 1
H13A_1^a H 0.003980 0.490419 -0.047747 0.091 Uiso 0.489(8) 1 calc R U P A 1
H13B_1^a H -0.013662 0.340152 -0.017387 0.091 Uiso 0.489(8) 1 calc R U P A 1
C14_1^a C 0.805(3) 0.453(2) 0.1106(6) 0.058(4) Uani 0.489(8) 1 d D U P A 1
H14A_1^a H 0.857265 0.385712 0.082862 0.086 Uiso 0.489(8) 1 calc R U P A 1
H14B_1^a H 0.721781 0.410062 0.138514 0.086 Uiso 0.489(8) 1 calc R U P A 1
H14C_1^a H 0.893797 0.495252 0.136404 0.086 Uiso 0.489(8) 1 calc R U P A 1
C15_1^a C 0.8587(13) 0.7337(14) 0.1879(6) 0.031(2) Uani 0.489(8) 1 d D U P A 1
O16_1^a O 0.9756(17) 0.7633(12) 0.1508(7) 0.037(2) Uani 0.489(8) 1 d D U P A 1
N17_1^a N 0.898(2) 0.693(3) 0.2480(6) 0.053(3) Uani 0.489(8) 1 d D U P A 1
C18_1^a C 1.074(2) 0.699(3) 0.2691(10) 0.057(4) Uani 0.489(8) 1 d D U P A 1
H18A_1^a H 1.077212 0.714502 0.315604 0.069 Uiso 0.489(8) 1 calc R U P A 1
H18B_1^a H 1.131092 0.775922 0.248287 0.069 Uiso 0.489(8) 1 calc R U P A 1
C19_1^a C 1.172(3) 0.572(3) 0.2535(12) 0.081(6) Uani 0.489(8) 1 d D U P A 1
H19A_1^a H 1.170167 0.557462 0.207427 0.121 Uiso 0.489(8) 1 calc R U P A 1
H19B_1^a H 1.118533 0.496884 0.275141 0.121 Uiso 0.489(8) 1 calc R U P A 1
H19C_1^a H 1.290119 0.581366 0.267894 0.121 Uiso 0.489(8) 1 calc R U P A 1
C20_1^a C 0.774(2) 0.639(2) 0.2931(7) 0.076(5) Uani 0.489(8) 1 d D U P A 1
H20A_1^a H 0.825439 0.561669 0.315034 0.091 Uiso 0.489(8) 1 calc R U P A 1
H20B_1^a H 0.673578 0.606833 0.269227 0.091 Uiso 0.489(8) 1 calc R U P A 1
C21_1^a C 0.715(3) 0.740(3) 0.3431(8) 0.109(7) Uani 0.489(8) 1 d D U P A 1
H21A_1^a H 0.645581 0.808520 0.322613 0.163 Uiso 0.489(8) 1 calc R U P A 1
H21B_1^a H 0.814824 0.781394 0.362958 0.163 Uiso 0.489(8) 1 calc R U P A 1
H21C_1^a H 0.647702 0.694295 0.375649 0.163 Uiso 0.489(8) 1 calc R U P A 1
N1_2^b N 0.4583(18) 0.6803(18) 0.0919(6) 0.052(3) Uani 0.511(8) 1 d D U P A 2
C2_2^b C 0.3529(19) 0.606(2) 0.0461(8) 0.052(3) Uani 0.511(8) 1 d D U P A 2
H2A_2^b H 0.274483 0.667982 0.024323 0.062 Uiso 0.511(8) 1 calc R U P A 2
H2B_2^b H 0.283245 0.539520 0.069267 0.062 Uiso 0.511(8) 1 calc R U P A 2
C3_2^b C 0.4623(16) 0.5343(11) -0.0036(6) 0.046(3) Uani 0.511(8) 1 d D U P A 2
C4_2^b C 0.592(2) 0.4494(12) 0.0295(7) 0.044(2) Uani 0.511(8) 1 d D U P A 2
H4A_2^b H 0.660762 0.402141 -0.002844 0.053 Uiso 0.511(8) 1 calc R U P A 2
H4B_2^b H 0.532284 0.381582 0.055361 0.053 Uiso 0.511(8) 1 calc R U P A 2
C5_2^b C 0.709(2) 0.5280(15) 0.0720(8) 0.042(3) Uani 0.511(8) 1 d D U P A 2
H5_2^b H 0.785747 0.580137 0.043293 0.051 Uiso 0.511(8) 1 calc R U P A 2
C6_2^b C 0.6141(16) 0.6270(13) 0.1111(7) 0.036(2) Uani 0.511(8) 1 d D U P A 2
C7_2^b C 0.6615(14) 0.7006(16) 0.1642(8) 0.043(3) Uani 0.511(8) 1 d D U P A 2
C8_2^b C 0.5326(17) 0.8037(15) 0.1748(5) 0.061(3) Uani 0.511(8) 1 d D U P A 2
H8_2^b H 0.537330 0.873765 0.205108 0.073 Uiso 0.511(8) 1 calc R U P A 2
C9_2^b C 0.4042(15) 0.7790(14) 0.1325(5) 0.060(3) Uani 0.511(8) 1 d D U P A 2
H9_2^b H 0.296763 0.822345 0.131306 0.073 Uiso 0.511(8) 1 calc R U P A 2
O10_2^b O 0.5528(13) 0.6271(9) -0.0412(5) 0.057(2) Uani 0.511(8) 1 d D U P A 2
H10_2^b H 0.494350 0.647573 -0.073168 0.069 Uiso 0.511(8) 1 calc R U P A 2
C11_2^b C 0.3495(11) 0.4436(10) -0.0445(4) 0.060(2) Uani 0.511(8) 1 d D U P A 2
H11A_2^b H 0.416230 0.414900 -0.082060 0.072 Uiso 0.511(8) 1 calc R U P A 2
H11B_2^b H 0.322335 0.362851 -0.019518 0.072 Uiso 0.511(8) 1 calc R U P A 2
C12_2^b C 0.1901(8) 0.5014(7) -0.0669(3) 0.065(2) Uani 0.511(8) 1 d D U P A 2
H12_2^b H 0.200694 0.583836 -0.088720 0.079 Uiso 0.511(8) 1 calc R U P A 2
C13_2^b C 0.0408(13) 0.4579(14) -0.0615(7) 0.124(6) Uani 0.511(8) 1 d D U P A 2
H13A_2^b H 0.020664 0.375957 -0.040293 0.149 Uiso 0.511(8) 1 calc R U P A 2
H13B_2^b H -0.051801 0.506878 -0.078706 0.149 Uiso 0.511(8) 1 calc R U P A 2
C14_2^b C 0.825(4) 0.438(3) 0.1121(10) 0.089(6) Uani 0.511(8) 1 d D U P A 2
H14A_2^b H 0.879397 0.371558 0.084442 0.134 Uiso 0.511(8) 1 calc R U P A 2
H14B_2^b H 0.757425 0.392461 0.144598 0.134 Uiso 0.511(8) 1 calc R U P A 2
H14C_2^b H 0.913328 0.491872 0.132672 0.134 Uiso 0.511(8) 1 calc R U P A 2
C15_2^b C 0.8358(16) 0.7034(14) 0.1877(6) 0.038(3) Uani 0.511(8) 1 d D U P A 2
O16_2^b O 0.9599(16) 0.7254(11) 0.1523(7) 0.039(2) Uani 0.511(8) 1 d D U P A 2
N17_2^b N 0.8637(19) 0.698(2) 0.2515(6) 0.044(2) Uani 0.511(8) 1 d D U P A 2
C18_2^b C 1.038(2) 0.703(3) 0.2751(10) 0.052(3) Uani 0.511(8) 1 d D U P A 2
H18A_2^b H 1.035717 0.725154 0.321018 0.063 Uiso 0.511(8) 1 calc R U P A 2
H18B_2^b H 1.100016 0.774487 0.252764 0.063 Uiso 0.511(8) 1 calc R U P A 2
C19_2^b C 1.132(3) 0.572(3) 0.2660(11) 0.070(5) Uani 0.511(8) 1 d D U P A 2
H19A_2^b H 1.137822 0.551290 0.220505 0.104 Uiso 0.511(8) 1 calc R U P A 2
H19B_2^b H 1.071226 0.501074 0.288333 0.104 Uiso 0.511(8) 1 calc R U P A 2
H19C_2^b H 1.247341 0.580376 0.283178 0.104 Uiso 0.511(8) 1 calc R U P A 2
C20_2^b C 0.732(2) 0.659(2) 0.2974(9) 0.069(4) Uani 0.511(8) 1 d D U P A 2
H20A_2^b H 0.771710 0.580337 0.321642 0.082 Uiso 0.511(8) 1 calc R U P A 2
H20B_2^b H 0.627170 0.633926 0.274343 0.082 Uiso 0.511(8) 1 calc R U P A 2
C21_2^b C 0.693(4) 0.774(3) 0.3441(11) 0.115(7) Uani 0.511(8) 1 d D U P A 2
H21A_2^b H 0.661155 0.853653 0.319940 0.173 Uiso 0.511(8) 1 calc R U P A 2
H21B_2^b H 0.793747 0.792843 0.369896 0.173 Uiso 0.511(8) 1 calc R U P A 2
H21C_2^b H 0.598270 0.748213 0.371924 0.173 Uiso 0.511(8) 1 calc R U P A 2
 
loop_
 _atom_site_aniso_label
 _atom_site_aniso_U_11
 _atom_site_aniso_U_22
 _atom_site_aniso_U_33
 _atom_site_aniso_U_23
 _atom_site_aniso_U_13
 _atom_site_aniso_U_12
N1_1^a 0.035(3) 0.089(6) 0.041(5) 0.001(4) -0.003(3) -0.011(4)
C2_1^a 0.046(5) 0.054(7) 0.058(5) -0.003(4) -0.008(4) -0.005(4)
C3_1^a 0.046(4) 0.043(6) 0.042(3) 0.009(4) -0.011(3) -0.006(4)
C4_1^a 0.061(4) 0.032(6) 0.046(4) 0.001(4) -0.007(3) 0.000(5)
C5_1^a 0.054(4) 0.029(6) 0.039(4) 0.007(4) -0.015(3) -0.004(4)
C6_1^a 0.037(3) 0.024(5) 0.049(4) 0.005(4) 0.003(3) -0.010(3)
C7_1^a 0.034(4) 0.043(6) 0.050(4) -0.005(4) 0.005(3) -0.019(4)
C8_1^a 0.040(3) 0.108(8) 0.042(5) -0.008(5) 0.007(3) -0.002(4)
C9_1^a 0.040(3) 0.117(9) 0.045(5) -0.009(5) 0.006(4) -0.002(4)
O10_1^a 0.067(4) 0.064(6) 0.054(4) 0.025(4) -0.017(3) -0.021(5)
C11_1^a 0.056(4) 0.055(6) 0.053(4) 0.001(4) -0.009(3) -0.007(4)
C12_1^a 0.068(4) 0.065(5) 0.054(3) -0.001(3) -0.011(3) -0.006(3)
C13_1^a 0.056(4) 0.085(7) 0.085(6) -0.049(5) 0.006(4) -0.017(4)
C14_1^a 0.086(8) 0.046(7) 0.040(5) -0.011(4) -0.025(4) 0.022(5)
C15_1^a 0.029(3) 0.025(6) 0.039(3) 0.001(3) -0.002(3) -0.018(3)
O16_1^a 0.040(3) 0.034(6) 0.036(2) 0.015(4) 0.004(2) -0.018(3)
N17_1^a 0.054(6) 0.072(7) 0.034(3) 0.010(4) 0.001(3) -0.016(5)
C18_1^a 0.059(7) 0.073(9) 0.040(6) 0.007(6) -0.024(5) -0.016(7)
C19_1^a 0.080(9) 0.060(8) 0.101(15) 0.019(9) -0.036(9) -0.004(6)
C20_1^a 0.081(8) 0.115(12) 0.032(5) 0.000(5) 0.010(5) -0.039(8)
C21_1^a 0.134(13) 0.155(19) 0.037(5) -0.020(7) 0.027(6) -0.049(12)
N1_2^b 0.047(4) 0.067(5) 0.043(5) -0.004(4) 0.001(3) 0.003(4)
C2_2^b 0.037(4) 0.065(9) 0.054(5) -0.006(4) -0.008(3) -0.002(4)
C3_2^b 0.048(4) 0.048(6) 0.042(3) 0.008(4) -0.001(3) -0.005(4)
C4_2^b 0.064(5) 0.024(5) 0.045(3) 0.004(4) -0.007(3) -0.004(4)
C5_2^b 0.055(4) 0.031(7) 0.040(4) 0.004(4) -0.003(3) 0.000(4)
C6_2^b 0.042(3) 0.030(6) 0.036(3) 0.005(3) -0.006(3) -0.018(3)
C7_2^b 0.034(4) 0.048(7) 0.047(4) -0.004(4) 0.000(3) -0.020(4)
C8_2^b 0.053(4) 0.076(6) 0.054(6) -0.021(5) 0.008(4) 0.004(4)
C9_2^b 0.044(4) 0.079(6) 0.058(6) -0.011(5) 0.002(4) 0.010(4)
O10_2^b 0.045(3) 0.073(6) 0.054(4) 0.030(4) -0.013(2) -0.013(4)
C11_2^b 0.058(4) 0.072(6) 0.050(4) -0.005(4) -0.004(3) -0.013(4)
C12_2^b 0.057(3) 0.057(4) 0.082(4) 0.006(3) -0.019(3) -0.013(3)
C13_2^b 0.071(5) 0.129(10) 0.173(13) 0.056(10) -0.038(7) -0.029(6)
C14_2^b 0.097(9) 0.073(10) 0.098(10) 0.006(7) -0.042(7) 0.030(7)
C15_2^b 0.048(4) 0.029(6) 0.037(3) 0.004(3) 0.002(3) -0.027(3)
O16_2^b 0.037(3) 0.033(6) 0.047(2) 0.018(4) -0.002(2) -0.014(3)
N17_2^b 0.047(5) 0.052(5) 0.032(3) -0.007(3) 0.004(3) -0.013(4)
C18_2^b 0.059(6) 0.053(6) 0.045(4) 0.002(4) -0.007(4) 0.000(5)
C19_2^b 0.086(11) 0.067(9) 0.056(5) -0.007(5) -0.030(6) 0.014(8)
C20_2^b 0.082(7) 0.073(6) 0.051(5) -0.005(4) 0.034(4) -0.012(6)
C21_2^b 0.158(13) 0.103(10) 0.085(9) -0.029(7) 0.063(8) -0.005(9)
 
_geom_special_details
;
 All esds (except the esd in the dihedral angle between two l.s. planes)
 are estimated using the full covariance matrix.  The cell esds are taken
 into account individually in the estimation of esds in distances, angles
 and torsion angles; correlations between esds in cell parameters are only
 used when they are defined by crystal symmetry.  An approximate (isotropic)
 treatment of cell esds is used for estimating esds involving l.s. planes.
;
 
loop_
 _geom_bond_atom_site_label_1
 _geom_bond_atom_site_label_2
 _geom_bond_distance
 _geom_bond_site_symmetry_2
 _geom_bond_publ_flag
N1_1^a C9_1^a 1.347(13) . ?
N1_1^a C6_1^a 1.401(12) . ?
N1_1^a C2_1^a 1.481(13) . ?
C2_1^a C3_1^a 1.518(13) . ?
C2_1^a H2A_1^a 0.9900 . ?
C2_1^a H2B_1^a 0.9900 . ?
C3_1^a O10_1^a 1.426(12) . ?
C3_1^a C4_1^a 1.510(11) . ?
C3_1^a C11_1^a 1.543(11) . ?
C4_1^a C5_1^a 1.536(13) . ?
C4_1^a H4A_1^a 0.9900 . ?
C4_1^a H4B_1^a 0.9900 . ?
C5_1^a C6_1^a 1.492(13) . ?
C5_1^a C14_1^a 1.555(13) . ?
C5_1^a H5_1^a 1.0000 . ?
C6_1^a C7_1^a 1.381(12) . ?
C7_1^a C8_1^a 1.458(14) . ?
C7_1^a C15_1^a 1.470(11) . ?
C8_1^a C9_1^a 1.363(13) . ?
C8_1^a H8_1^a 0.9500 . ?
C9_1^a H9_1^a 0.9500 . ?
O10_1^a H10_1^a 0.8400 . ?
C11_1^a C12_1^a 1.462(10) . ?
C11_1^a H11A_1^a 0.9900 . ?
C11_1^a H11B_1^a 0.9900 . ?
C12_1^a C13_1^a 1.309(11) . ?
C12_1^a H12_1^a 0.9500 . ?
C13_1^a H13A_1^a 0.9500 . ?
C13_1^a H13B_1^a 0.9500 . ?
C14_1^a H14A_1^a 0.9800 . ?
C14_1^a H14B_1^a 0.9800 . ?
C14_1^a H14C_1^a 0.9800 . ?
C15_1^a O16_1^a 1.240(11) . ?
C15_1^a N17_1^a 1.363(12) . ?
N17_1^a C18_1^a 1.458(12) . ?
N17_1^a C20_1^a 1.462(13) . ?
C18_1^a C19_1^a 1.525(15) . ?
C18_1^a H18A_1^a 0.9900 . ?
C18_1^a H18B_1^a 0.9900 . ?
C19_1^a H19A_1^a 0.9800 . ?
C19_1^a H19B_1^a 0.9800 . ?
C19_1^a H19C_1^a 0.9800 . ?
C20_1^a C21_1^a 1.531(15) . ?
C20_1^a H20A_1^a 0.9900 . ?
C20_1^a H20B_1^a 0.9900 . ?
C21_1^a H21A_1^a 0.9800 . ?
C21_1^a H21B_1^a 0.9800 . ?
C21_1^a H21C_1^a 0.9800 . ?
N1_2^b C9_2^b 1.375(12) . ?
N1_2^b C6_2^b 1.395(13) . ?
N1_2^b C2_2^b 1.475(13) . ?
C2_2^b C3_2^b 1.532(11) . ?
C2_2^b H2A_2^b 0.9900 . ?
C2_2^b H2B_2^b 0.9900 . ?
C3_2^b O10_2^b 1.414(11) . ?
C3_2^b C4_2^b 1.500(11) . ?
C3_2^b C11_2^b 1.535(11) . ?
C4_2^b C5_2^b 1.507(13) . ?
C4_2^b H4A_2^b 0.9900 . ?
C4_2^b H4B_2^b 0.9900 . ?
C5_2^b C6_2^b 1.491(12) . ?
C5_2^b C14_2^b 1.537(13) . ?
C5_2^b H5_2^b 1.0000 . ?
C6_2^b C7_2^b 1.390(11) . ?
C7_2^b C15_2^b 1.457(11) . ?
C7_2^b C8_2^b 1.466(14) . ?
C8_2^b C9_2^b 1.368(12) . ?
C8_2^b H8_2^b 0.9500 . ?
C9_2^b H9_2^b 0.9500 . ?
O10_2^b H10_2^b 0.8400 . ?
C11_2^b C12_2^b 1.458(10) . ?
C11_2^b H11A_2^b 0.9900 . ?
C11_2^b H11B_2^b 0.9900 . ?
C12_2^b C13_2^b 1.257(11) . ?
C12_2^b H12_2^b 0.9500 . ?
C13_2^b H13A_2^b 0.9500 . ?
C13_2^b H13B_2^b 0.9500 . ?
C14_2^b H14A_2^b 0.9800 . ?
C14_2^b H14B_2^b 0.9800 . ?
C14_2^b H14C_2^b 0.9800 . ?
C15_2^b O16_2^b 1.247(11) . ?
C15_2^b N17_2^b 1.360(12) . ?
N17_2^b C18_2^b 1.453(12) . ?
N17_2^b C20_2^b 1.468(12) . ?
C18_2^b C19_2^b 1.519(14) . ?
C18_2^b H18A_2^b 0.9900 . ?
C18_2^b H18B_2^b 0.9900 . ?
C19_2^b H19A_2^b 0.9800 . ?
C19_2^b H19B_2^b 0.9800 . ?
C19_2^b H19C_2^b 0.9800 . ?
C20_2^b C21_2^b 1.547(14) . ?
C20_2^b H20A_2^b 0.9900 . ?
C20_2^b H20B_2^b 0.9900 . ?
C21_2^b H21A_2^b 0.9800 . ?
C21_2^b H21B_2^b 0.9800 . ?
C21_2^b H21C_2^b 0.9800 . ?
 
loop_
 _geom_angle_atom_site_label_1
 _geom_angle_atom_site_label_2
 _geom_angle_atom_site_label_3
 _geom_angle
 _geom_angle_site_symmetry_1
 _geom_angle_site_symmetry_3
 _geom_angle_publ_flag
C9_1^a N1_1^a C6_1^a 108.9(10) . . ?
C9_1^a N1_1^a C2_1^a 122.2(11) . . ?
C6_1^a N1_1^a C2_1^a 127.5(12) . . ?
N1_1^a C2_1^a C3_1^a 110.2(11) . . ?
N1_1^a C2_1^a H2A_1^a 109.6 . . ?
C3_1^a C2_1^a H2A_1^a 109.6 . . ?
N1_1^a C2_1^a H2B_1^a 109.6 . . ?
C3_1^a C2_1^a H2B_1^a 109.6 . . ?
H2A_1^a C2_1^a H2B_1^a 108.1 . . ?
O10_1^a C3_1^a C4_1^a 104.0(9) . . ?
O10_1^a C3_1^a C2_1^a 108.9(11) . . ?
C4_1^a C3_1^a C2_1^a 108.9(10) . . ?
O10_1^a C3_1^a C11_1^a 110.1(8) . . ?
C4_1^a C3_1^a C11_1^a 114.6(9) . . ?
C2_1^a C3_1^a C11_1^a 110.2(9) . . ?
C3_1^a C4_1^a C5_1^a 114.9(9) . . ?
C3_1^a C4_1^a H4A_1^a 108.5 . . ?
C5_1^a C4_1^a H4A_1^a 108.5 . . ?
C3_1^a C4_1^a H4B_1^a 108.5 . . ?
C5_1^a C4_1^a H4B_1^a 108.5 . . ?
H4A_1^a C4_1^a H4B_1^a 107.5 . . ?
C6_1^a C5_1^a C4_1^a 110.5(11) . . ?
C6_1^a C5_1^a C14_1^a 110.2(12) . . ?
C4_1^a C5_1^a C14_1^a 107.6(12) . . ?
C6_1^a C5_1^a H5_1^a 109.5 . . ?
C4_1^a C5_1^a H5_1^a 109.5 . . ?
C14_1^a C5_1^a H5_1^a 109.5 . . ?
C7_1^a C6_1^a N1_1^a 108.5(10) . . ?
C7_1^a C6_1^a C5_1^a 132.1(10) . . ?
N1_1^a C6_1^a C5_1^a 118.2(11) . . ?
C6_1^a C7_1^a C8_1^a 105.1(9) . . ?
C6_1^a C7_1^a C15_1^a 125.8(11) . . ?
C8_1^a C7_1^a C15_1^a 128.8(11) . . ?
C9_1^a C8_1^a C7_1^a 107.6(10) . . ?
C9_1^a C8_1^a H8_1^a 126.2 . . ?
C7_1^a C8_1^a H8_1^a 126.2 . . ?
N1_1^a C9_1^a C8_1^a 109.1(10) . . ?
N1_1^a C9_1^a H9_1^a 125.4 . . ?
C8_1^a C9_1^a H9_1^a 125.4 . . ?
C3_1^a O10_1^a H10_1^a 109.5 . . ?
C12_1^a C11_1^a C3_1^a 118.5(8) . . ?
C12_1^a C11_1^a H11A_1^a 107.7 . . ?
C3_1^a C11_1^a H11A_1^a 107.7 . . ?
C12_1^a C11_1^a H11B_1^a 107.7 . . ?
C3_1^a C11_1^a H11B_1^a 107.7 . . ?
H11A_1^a C11_1^a H11B_1^a 107.1 . . ?
C13_1^a C12_1^a C11_1^a 122.7(8) . . ?
C13_1^a C12_1^a H12_1^a 118.7 . . ?
C11_1^a C12_1^a H12_1^a 118.7 . . ?
C12_1^a C13_1^a H13A_1^a 120.0 . . ?
C12_1^a C13_1^a H13B_1^a 120.0 . . ?
H13A_1^a C13_1^a H13B_1^a 120.0 . . ?
C5_1^a C14_1^a H14A_1^a 109.5 . . ?
C5_1^a C14_1^a H14B_1^a 109.5 . . ?
H14A_1^a C14_1^a H14B_1^a 109.5 . . ?
C5_1^a C14_1^a H14C_1^a 109.5 . . ?
H14A_1^a C14_1^a H14C_1^a 109.5 . . ?
H14B_1^a C14_1^a H14C_1^a 109.5 . . ?
O16_1^a C15_1^a N17_1^a 119.2(11) . . ?
O16_1^a C15_1^a C7_1^a 119.2(12) . . ?
N17_1^a C15_1^a C7_1^a 121.2(12) . . ?
C15_1^a N17_1^a C18_1^a 118.9(13) . . ?
C15_1^a N17_1^a C20_1^a 124.2(13) . . ?
C18_1^a N17_1^a C20_1^a 116.9(12) . . ?
N17_1^a C18_1^a C19_1^a 112.1(15) . . ?
N17_1^a C18_1^a H18A_1^a 109.2 . . ?
C19_1^a C18_1^a H18A_1^a 109.2 . . ?
N17_1^a C18_1^a H18B_1^a 109.2 . . ?
C19_1^a C18_1^a H18B_1^a 109.2 . . ?
H18A_1^a C18_1^a H18B_1^a 107.9 . . ?
C18_1^a C19_1^a H19A_1^a 109.5 . . ?
C18_1^a C19_1^a H19B_1^a 109.5 . . ?
H19A_1^a C19_1^a H19B_1^a 109.5 . . ?
C18_1^a C19_1^a H19C_1^a 109.5 . . ?
H19A_1^a C19_1^a H19C_1^a 109.5 . . ?
H19B_1^a C19_1^a H19C_1^a 109.5 . . ?
N17_1^a C20_1^a C21_1^a 113.6(15) . . ?
N17_1^a C20_1^a H20A_1^a 108.9 . . ?
C21_1^a C20_1^a H20A_1^a 108.9 . . ?
N17_1^a C20_1^a H20B_1^a 108.9 . . ?
C21_1^a C20_1^a H20B_1^a 108.9 . . ?
H20A_1^a C20_1^a H20B_1^a 107.7 . . ?
C20_1^a C21_1^a H21A_1^a 109.5 . . ?
C20_1^a C21_1^a H21B_1^a 109.5 . . ?
H21A_1^a C21_1^a H21B_1^a 109.5 . . ?
C20_1^a C21_1^a H21C_1^a 109.5 . . ?
H21A_1^a C21_1^a H21C_1^a 109.5 . . ?
H21B_1^a C21_1^a H21C_1^a 109.5 . . ?
C9_2^b N1_2^b C6_2^b 111.7(9) . . ?
C9_2^b N1_2^b C2_2^b 126.7(11) . . ?
C6_2^b N1_2^b C2_2^b 119.1(12) . . ?
N1_2^b C2_2^b C3_2^b 111.7(10) . . ?
N1_2^b C2_2^b H2A_2^b 109.3 . . ?
C3_2^b C2_2^b H2A_2^b 109.3 . . ?
N1_2^b C2_2^b H2B_2^b 109.3 . . ?
C3_2^b C2_2^b H2B_2^b 109.3 . . ?
H2A_2^b C2_2^b H2B_2^b 107.9 . . ?
O10_2^b C3_2^b C4_2^b 107.0(9) . . ?
O10_2^b C3_2^b C2_2^b 110.7(11) . . ?
C4_2^b C3_2^b C2_2^b 109.3(10) . . ?
O10_2^b C3_2^b C11_2^b 111.7(8) . . ?
C4_2^b C3_2^b C11_2^b 108.3(9) . . ?
C2_2^b C3_2^b C11_2^b 109.7(9) . . ?
C3_2^b C4_2^b C5_2^b 113.1(10) . . ?
C3_2^b C4_2^b H4A_2^b 109.0 . . ?
C5_2^b C4_2^b H4A_2^b 109.0 . . ?
C3_2^b C4_2^b H4B_2^b 109.0 . . ?
C5_2^b C4_2^b H4B_2^b 109.0 . . ?
H4A_2^b C4_2^b H4B_2^b 107.8 . . ?
C6_2^b C5_2^b C4_2^b 111.7(11) . . ?
C6_2^b C5_2^b C14_2^b 113.0(12) . . ?
C4_2^b C5_2^b C14_2^b 112.2(13) . . ?
C6_2^b C5_2^b H5_2^b 106.5 . . ?
C4_2^b C5_2^b H5_2^b 106.5 . . ?
C14_2^b C5_2^b H5_2^b 106.5 . . ?
C7_2^b C6_2^b N1_2^b 105.2(9) . . ?
C7_2^b C6_2^b C5_2^b 131.5(10) . . ?
N1_2^b C6_2^b C5_2^b 122.5(9) . . ?
C6_2^b C7_2^b C15_2^b 122.3(11) . . ?
C6_2^b C7_2^b C8_2^b 108.3(9) . . ?
C15_2^b C7_2^b C8_2^b 125.7(11) . . ?
C9_2^b C8_2^b C7_2^b 106.4(9) . . ?
C9_2^b C8_2^b H8_2^b 126.8 . . ?
C7_2^b C8_2^b H8_2^b 126.8 . . ?
C8_2^b C9_2^b N1_2^b 107.8(9) . . ?
C8_2^b C9_2^b H9_2^b 126.1 . . ?
N1_2^b C9_2^b H9_2^b 126.1 . . ?
C3_2^b O10_2^b H10_2^b 109.5 . . ?
C12_2^b C11_2^b C3_2^b 116.1(8) . . ?
C12_2^b C11_2^b H11A_2^b 108.3 . . ?
C3_2^b C11_2^b H11A_2^b 108.3 . . ?
C12_2^b C11_2^b H11B_2^b 108.3 . . ?
C3_2^b C11_2^b H11B_2^b 108.3 . . ?
H11A_2^b C11_2^b H11B_2^b 107.4 . . ?
C13_2^b C12_2^b C11_2^b 129.3(8) . . ?
C13_2^b C12_2^b H12_2^b 115.4 . . ?
C11_2^b C12_2^b H12_2^b 115.4 . . ?
C12_2^b C13_2^b H13A_2^b 120.0 . . ?
C12_2^b C13_2^b H13B_2^b 120.0 . . ?
H13A_2^b C13_2^b H13B_2^b 120.0 . . ?
C5_2^b C14_2^b H14A_2^b 109.5 . . ?
C5_2^b C14_2^b H14B_2^b 109.5 . . ?
H14A_2^b C14_2^b H14B_2^b 109.5 . . ?
C5_2^b C14_2^b H14C_2^b 109.5 . . ?
H14A_2^b C14_2^b H14C_2^b 109.5 . . ?
H14B_2^b C14_2^b H14C_2^b 109.5 . . ?
O16_2^b C15_2^b N17_2^b 118.0(11) . . ?
O16_2^b C15_2^b C7_2^b 122.4(11) . . ?
N17_2^b C15_2^b C7_2^b 119.1(12) . . ?
C15_2^b N17_2^b C18_2^b 119.1(12) . . ?
C15_2^b N17_2^b C20_2^b 123.0(12) . . ?
C18_2^b N17_2^b C20_2^b 116.4(12) . . ?
N17_2^b C18_2^b C19_2^b 112.9(14) . . ?
N17_2^b C18_2^b H18A_2^b 109.0 . . ?
C19_2^b C18_2^b H18A_2^b 109.0 . . ?
N17_2^b C18_2^b H18B_2^b 109.0 . . ?
C19_2^b C18_2^b H18B_2^b 109.0 . . ?
H18A_2^b C18_2^b H18B_2^b 107.8 . . ?
C18_2^b C19_2^b H19A_2^b 109.5 . . ?
C18_2^b C19_2^b H19B_2^b 109.5 . . ?
H19A_2^b C19_2^b H19B_2^b 109.5 . . ?
C18_2^b C19_2^b H19C_2^b 109.5 . . ?
H19A_2^b C19_2^b H19C_2^b 109.5 . . ?
H19B_2^b C19_2^b H19C_2^b 109.5 . . ?
N17_2^b C20_2^b C21_2^b 110.8(14) . . ?
N17_2^b C20_2^b H20A_2^b 109.5 . . ?
C21_2^b C20_2^b H20A_2^b 109.5 . . ?
N17_2^b C20_2^b H20B_2^b 109.5 . . ?
C21_2^b C20_2^b H20B_2^b 109.5 . . ?
H20A_2^b C20_2^b H20B_2^b 108.1 . . ?
C20_2^b C21_2^b H21A_2^b 109.5 . . ?
C20_2^b C21_2^b H21B_2^b 109.5 . . ?
H21A_2^b C21_2^b H21B_2^b 109.5 . . ?
C20_2^b C21_2^b H21C_2^b 109.5 . . ?
H21A_2^b C21_2^b H21C_2^b 109.5 . . ?
H21B_2^b C21_2^b H21C_2^b 109.5 . . ?
 
loop_
 _geom_torsion_atom_site_label_1
 _geom_torsion_atom_site_label_2
 _geom_torsion_atom_site_label_3
 _geom_torsion_atom_site_label_4
 _geom_torsion
 _geom_torsion_site_symmetry_1
 _geom_torsion_site_symmetry_2
 _geom_torsion_site_symmetry_3
 _geom_torsion_site_symmetry_4
 _geom_torsion_publ_flag
C9_1^a N1_1^a C2_1^a C3_1^a 165.0(15) . . . . ?
C6_1^a N1_1^a C2_1^a C3_1^a 0(3) . . . . ?
N1_1^a C2_1^a C3_1^a O10_1^a -72.3(18) . . . . ?
N1_1^a C2_1^a C3_1^a C4_1^a 40.4(19) . . . . ?
N1_1^a C2_1^a C3_1^a C11_1^a 166.9(15) . . . . ?
O10_1^a C3_1^a C4_1^a C5_1^a 51.6(16) . . . . ?
C2_1^a C3_1^a C4_1^a C5_1^a -64.3(17) . . . . ?
C11_1^a C3_1^a C4_1^a C5_1^a 171.8(13) . . . . ?
C3_1^a C4_1^a C5_1^a C6_1^a 42.5(19) . . . . ?
C3_1^a C4_1^a C5_1^a C14_1^a 162.8(14) . . . . ?
C9_1^a N1_1^a C6_1^a C7_1^a 2.9(16) . . . . ?
C2_1^a N1_1^a C6_1^a C7_1^a 170(2) . . . . ?
C9_1^a N1_1^a C6_1^a C5_1^a 171.6(15) . . . . ?
C2_1^a N1_1^a C6_1^a C5_1^a -22(3) . . . . ?
C4_1^a C5_1^a C6_1^a C7_1^a 165.1(16) . . . . ?
C14_1^a C5_1^a C6_1^a C7_1^a 46(2) . . . . ?
C4_1^a C5_1^a C6_1^a N1_1^a 0(2) . . . . ?
C14_1^a C5_1^a C6_1^a N1_1^a -119.1(18) . . . . ?
N1_1^a C6_1^a C7_1^a C8_1^a 2.2(15) . . . . ?
C5_1^a C6_1^a C7_1^a C8_1^a -164.3(18) . . . . ?
N1_1^a C6_1^a C7_1^a C15_1^a 177.2(19) . . . . ?
C5_1^a C6_1^a C7_1^a C15_1^a 11(3) . . . . ?
C6_1^a C7_1^a C8_1^a C9_1^a -6.5(17) . . . . ?
C15_1^a C7_1^a C8_1^a C9_1^a 178.7(16) . . . . ?
C6_1^a N1_1^a C9_1^a C8_1^a -7.2(18) . . . . ?
C2_1^a N1_1^a C9_1^a C8_1^a -174.9(19) . . . . ?
C7_1^a C8_1^a C9_1^a N1_1^a 8.5(19) . . . . ?
O10_1^a C3_1^a C11_1^a C12_1^a -177.6(9) . . . . ?
C4_1^a C3_1^a C11_1^a C12_1^a 65.7(13) . . . . ?
C2_1^a C3_1^a C11_1^a C12_1^a -57.5(14) . . . . ?
C3_1^a C11_1^a C12_1^a C13_1^a 115.0(10) . . . . ?
C6_1^a C7_1^a C15_1^a O16_1^a 51(2) . . . . ?
C8_1^a C7_1^a C15_1^a O16_1^a -135.5(19) . . . . ?
C6_1^a C7_1^a C15_1^a N17_1^a -122(2) . . . . ?
C8_1^a C7_1^a C15_1^a N17_1^a 52(3) . . . . ?
O16_1^a C15_1^a N17_1^a C18_1^a 7(3) . . . . ?
C7_1^a C15_1^a N17_1^a C18_1^a 179.4(17) . . . . ?
O16_1^a C15_1^a N17_1^a C20_1^a -171.6(17) . . . . ?
C7_1^a C15_1^a N17_1^a C20_1^a 1(3) . . . . ?
C15_1^a N17_1^a C18_1^a C19_1^a -89(3) . . . . ?
C20_1^a N17_1^a C18_1^a C19_1^a 90(2) . . . . ?
C15_1^a N17_1^a C20_1^a C21_1^a -101(2) . . . . ?
C18_1^a N17_1^a C20_1^a C21_1^a 81(2) . . . . ?
C9_2^b N1_2^b C2_2^b C3_2^b 163.4(15) . . . . ?
C6_2^b N1_2^b C2_2^b C3_2^b -36(2) . . . . ?
N1_2^b C2_2^b C3_2^b O10_2^b -63.9(18) . . . . ?
N1_2^b C2_2^b C3_2^b C4_2^b 53.8(18) . . . . ?
N1_2^b C2_2^b C3_2^b C11_2^b 172.5(15) . . . . ?
O10_2^b C3_2^b C4_2^b C5_2^b 60.2(15) . . . . ?
C2_2^b C3_2^b C4_2^b C5_2^b -59.8(16) . . . . ?
C11_2^b C3_2^b C4_2^b C5_2^b -179.2(13) . . . . ?
C3_2^b C4_2^b C5_2^b C6_2^b 44.5(18) . . . . ?
C3_2^b C4_2^b C5_2^b C14_2^b 172.5(16) . . . . ?
C9_2^b N1_2^b C6_2^b C7_2^b -2.7(15) . . . . ?
C2_2^b N1_2^b C6_2^b C7_2^b -165.9(17) . . . . ?
C9_2^b N1_2^b C6_2^b C5_2^b -173.8(14) . . . . ?
C2_2^b N1_2^b C6_2^b C5_2^b 23(2) . . . . ?
C4_2^b C5_2^b C6_2^b C7_2^b 165.6(15) . . . . ?
C14_2^b C5_2^b C6_2^b C7_2^b 38(2) . . . . ?
C4_2^b C5_2^b C6_2^b N1_2^b -26(2) . . . . ?
C14_2^b C5_2^b C6_2^b N1_2^b -153.5(19) . . . . ?
N1_2^b C6_2^b C7_2^b C15_2^b -161.9(17) . . . . ?
C5_2^b C6_2^b C7_2^b C15_2^b 8(2) . . . . ?
N1_2^b C6_2^b C7_2^b C8_2^b -2.4(14) . . . . ?
C5_2^b C6_2^b C7_2^b C8_2^b 167.6(16) . . . . ?
C6_2^b C7_2^b C8_2^b C9_2^b 6.6(15) . . . . ?
C15_2^b C7_2^b C8_2^b C9_2^b 165.3(14) . . . . ?
C7_2^b C8_2^b C9_2^b N1_2^b -8.1(17) . . . . ?
C6_2^b N1_2^b C9_2^b C8_2^b 7.1(17) . . . . ?
C2_2^b N1_2^b C9_2^b C8_2^b 168.6(18) . . . . ?
O10_2^b C3_2^b C11_2^b C12_2^b -77.9(11) . . . . ?
C4_2^b C3_2^b C11_2^b C12_2^b 164.4(10) . . . . ?
C2_2^b C3_2^b C11_2^b C12_2^b 45.1(13) . . . . ?
C3_2^b C11_2^b C12_2^b C13_2^b -126.8(14) . . . . ?
C6_2^b C7_2^b C15_2^b O16_2^b 50(2) . . . . ?
C8_2^b C7_2^b C15_2^b O16_2^b -106.3(19) . . . . ?
C6_2^b C7_2^b C15_2^b N17_2^b -138.9(18) . . . . ?
C8_2^b C7_2^b C15_2^b N17_2^b 65(2) . . . . ?
O16_2^b C15_2^b N17_2^b C18_2^b -7(2) . . . . ?
C7_2^b C15_2^b N17_2^b C18_2^b -179.3(16) . . . . ?
O16_2^b C15_2^b N17_2^b C20_2^b -173.1(15) . . . . ?
C7_2^b C15_2^b N17_2^b C20_2^b 15(3) . . . . ?
C15_2^b N17_2^b C18_2^b C19_2^b -75(2) . . . . ?
C20_2^b N17_2^b C18_2^b C19_2^b 91(2) . . . . ?
C15_2^b N17_2^b C20_2^b C21_2^b -118(2) . . . . ?
C18_2^b N17_2^b C20_2^b C21_2^b 76(2) . . . . ?
 
loop_
 _geom_hbond_atom_site_label_D 
 _geom_hbond_atom_site_label_H 
 _geom_hbond_atom_site_label_A 
 _geom_hbond_distance_DH 
 _geom_hbond_distance_HA 
 _geom_hbond_distance_DA 
 _geom_hbond_angle_DHA 
 _geom_hbond_site_symmetry_A 
 _geom_hbond_publ_flag
O10_1^a H10_1^a O16_1^a  0.84 1.84 2.630(17) 156.7 2_465 yes
O10_2^b H10_2^b O16_2^b  0.84 2.11 2.861(16) 147.9 2_465 yes
 
_refine_diff_density_max    0.159
_refine_diff_density_min   -0.166
_refine_diff_density_rms    0.028

_shelx_res_file
;
TITL 20MCD010_a.res in P2(1)2(1)2(1)
    20MCD010.res
    created by SHELXL-2018/3 at 19:15:20 on 23-Jun-2020
CELL 1.54178 7.8556 10.0508 21.0196 90.000 90.000 90.000
ZERR 4.00 0.0002 0.0003 0.0006 0.000 0.000 0.000
LATT -1
SYMM x+1/2, -y+1/2, -z
SYMM -x, y+1/2, -z+1/2
SYMM -x+1/2, -y, z+1/2
SFAC C H N O
UNIT 68 104 8 8
LIST 4 ! automatically inserted. Change 6 to 4 for CHECKCIF!!
TEMP -173.150
SIZE 0.050 0.090 0.140
ACTA TABS
WPDB -2
RIGU_AAD N1 > C21
DELU_AAD N1 > C21
SIMU_AAD 0.02 0.04 2.0 N1 > C21
SAME_AAD N1 > C21
ISOR_AAD 0.01 0.02 C15
FLAT_AAD N1 C6 C7 C8 C9
L.S. 14
FMAP 2
PLAN 20
HTAB

REM Instructions for potential hydrogen bonds
EQIV $1 x-1/2, -y+3/2, -z
HTAB_1 O10_1 O16_$1
HTAB_2 O10_2 O16_$1

BOND $H
CONF
WGHT    0.060900    0.131400
FVAR       0.70156   0.48912
RESI AAD 1
PART 1 21.00
N1    3    0.452094    0.673812    0.105506    21.00000    0.03468    0.08895 =
         0.04097    0.00146   -0.00314   -0.01071
C2    1    0.342660    0.635748    0.051079    21.00000    0.04588    0.05365 =
         0.05794   -0.00263   -0.00768   -0.00541
AFIX  23
H2A   2    0.281530    0.715124    0.035085    21.00000   -1.20000
H2B   2    0.256975    0.569843    0.065212    21.00000   -1.20000
AFIX   0
C3    1    0.449929    0.576611   -0.001913    21.00000    0.04622    0.04294 =
         0.04183    0.00890   -0.01075   -0.00576
C4    1    0.584179    0.487849    0.027062    21.00000    0.06133    0.03156 =
         0.04584    0.00139   -0.00722    0.00017
AFIX  23
H4A   2    0.645659    0.441994   -0.007718    21.00000   -1.20000
H4B   2    0.526843    0.418808    0.052933    21.00000   -1.20000
AFIX   0
C5    1    0.714929    0.559797    0.069127    21.00000    0.05352    0.02950 =
         0.03879    0.00689   -0.01484   -0.00390
AFIX  13
H5    2    0.800725    0.605508    0.041605    21.00000   -1.20000
AFIX   0
C6    1    0.629012    0.659719    0.110630    21.00000    0.03684    0.02390 =
         0.04931    0.00511    0.00285   -0.01008
C7    1    0.683080    0.728107    0.163899    21.00000    0.03393    0.04253 =
         0.05016   -0.00503    0.00459   -0.01903
C8    1    0.528264    0.780745    0.192727    21.00000    0.03987    0.10812 =
         0.04164   -0.00777    0.00704   -0.00211
AFIX  43
H8    2    0.520499    0.825464    0.232438    21.00000   -1.20000
AFIX   0
C9    1    0.396726    0.754198    0.152408    21.00000    0.04050    0.11714 =
         0.04453   -0.00859    0.00596   -0.00238
AFIX  43
H9    2    0.283959    0.787140    0.156700    21.00000   -1.20000
AFIX   0
O10   4    0.545205    0.680381   -0.031427    21.00000    0.06674    0.06448 =
         0.05430    0.02486   -0.01711   -0.02133
AFIX 147
H10   2    0.496410    0.703862   -0.065167    21.00000   -1.20000
AFIX   0
C11   1    0.334704    0.507638   -0.051411    21.00000    0.05615    0.05538 =
         0.05277    0.00122   -0.00883   -0.00652
AFIX  23
H11A  2    0.263561    0.577069   -0.071640    21.00000   -1.20000
H11B  2    0.409139    0.470384   -0.084983    21.00000   -1.20000
AFIX   0
C12   1    0.221404    0.401422   -0.029894    21.00000    0.06783    0.06531 =
         0.05405   -0.00114   -0.01101   -0.00620
AFIX  43
H12   2    0.270260    0.321753   -0.013830    21.00000   -1.20000
AFIX   0
C13   1    0.055410    0.411594   -0.031855    21.00000    0.05649    0.08517 =
         0.08512   -0.04854    0.00641   -0.01677
AFIX  93
H13A  2    0.003980    0.490419   -0.047747    21.00000   -1.20000
H13B  2   -0.013662    0.340152   -0.017387    21.00000   -1.20000
AFIX   0
C14   1    0.805299    0.452814    0.110558    21.00000    0.08626    0.04612 =
         0.04044   -0.01071   -0.02456    0.02230
AFIX 137
H14A  2    0.857265    0.385712    0.082862    21.00000   -1.50000
H14B  2    0.721781    0.410062    0.138514    21.00000   -1.50000
H14C  2    0.893797    0.495252    0.136404    21.00000   -1.50000
AFIX   0
C15   1    0.858722    0.733673    0.187866    21.00000    0.02921    0.02452 =
         0.03929    0.00145   -0.00195   -0.01839
O16   4    0.975566    0.763288    0.150803    21.00000    0.04006    0.03370 =
         0.03629    0.01487    0.00378   -0.01805
N17   3    0.897792    0.693028    0.247990    21.00000    0.05430    0.07177 =
         0.03409    0.00987    0.00056   -0.01586
C18   1    1.074361    0.699456    0.269070    21.00000    0.05870    0.07333 =
         0.04032    0.00718   -0.02369   -0.01573
AFIX  23
H18A  2    1.077212    0.714502    0.315604    21.00000   -1.20000
H18B  2    1.131092    0.775922    0.248287    21.00000   -1.20000
AFIX   0
C19   1    1.172019    0.572445    0.253491    21.00000    0.08004    0.06050 =
         0.10107    0.01887   -0.03588   -0.00420
AFIX 137
H19A  2    1.170167    0.557462    0.207427    21.00000   -1.50000
H19B  2    1.118533    0.496884    0.275141    21.00000   -1.50000
H19C  2    1.290119    0.581366    0.267894    21.00000   -1.50000
AFIX   0
C20   1    0.774119    0.639041    0.293086    21.00000    0.08105    0.11496 =
         0.03249   -0.00033    0.00983   -0.03916
AFIX  23
H20A  2    0.825439    0.561669    0.315034    21.00000   -1.20000
H20B  2    0.673578    0.606833    0.269227    21.00000   -1.20000
AFIX   0
C21   1    0.715258    0.739891    0.343077    21.00000    0.13437    0.15513 =
         0.03732   -0.01977    0.02736   -0.04895
AFIX 137
H21A  2    0.645581    0.808520    0.322613    21.00000   -1.50000
H21B  2    0.814824    0.781394    0.362958    21.00000   -1.50000
H21C  2    0.647702    0.694295    0.375649    21.00000   -1.50000
AFIX   0

RESI 0
PART 0
AFIX   0
HKLF 4 1 1 0 0 0 1 0 0 0 1




REM  20MCD010_a.res in P2(1)2(1)2(1)
REM wR2 = 0.120614, GooF = S = 1.04962, Restrained GooF = 0.97973 for all data
REM R1 = 0.042893 for 2566 Fo > 4sig(Fo) and 0.061131 for all 3374 data
REM 388 parameters refined using 766 restraints

END

WGHT      0.0609      0.1314

REM Instructions for potential hydrogen bonds
HTAB_1^a C2_1^a O10_$1
EQIV $2 x-1, y, z
HTAB_1^a C9_1^a O16_$2
HTAB_1^a O10_1^a O16_$1
HTAB_2^b O10_2^b O16_$1
HTAB C19_2^b O16_2^b

REM Highest difference peak  0.159,  deepest hole -0.166,  1-sigma level  0.028
Q1    1   0.1610  0.5209 -0.0266  11.00000  0.05    0.16
Q2    1   0.0821  0.4120 -0.1038  11.00000  0.05    0.13
Q3    1   1.1372  0.7393  0.1289  11.00000  0.05    0.11
Q4    1   1.1044  0.7559  0.1688  11.00000  0.05    0.10
Q5    1   0.6665  0.6947 -0.0815  11.00000  0.05    0.10
Q6    1   0.2746  0.5713 -0.0169  11.00000  0.05    0.10
Q7    1   0.2551  0.8683  0.0907  11.00000  0.05    0.09
Q8    1   0.1631  0.3515 -0.1229  11.00000  0.05    0.09
Q9    1   0.2568  0.7543  0.1712  11.00000  0.05    0.09
Q10   1   1.0651  0.6436  0.1090  11.00000  0.05    0.09
Q11   1   1.0357  0.4661  0.0808  11.00000  0.05    0.08
Q12   1   0.7474  0.7242  0.4315  11.00000  0.05    0.08
Q13   1   0.9687  0.7520  0.3218  11.00000  0.05    0.08
Q14   1   0.6766  0.7394  0.1449  11.00000  0.05    0.08
Q15   1   0.6713  0.7174  0.0079  11.00000  0.05    0.08
Q16   1   1.1163  0.5184  0.2060  11.00000  0.05    0.08
Q17   1   0.6345  0.7434  0.1909  11.00000  0.05    0.08
Q18   1   0.2242  0.6859  0.0779  11.00000  0.05    0.08
Q19   1   0.4198  0.8979  0.2154  11.00000  0.05    0.08
Q20   1   0.4402  0.2929  0.0050  11.00000  0.05    0.07
;
_shelx_res_checksum   33066

_shelx_hkl_file
;
  -1   0   0   -0.10    1.00
  -1   0   0   -0.20    0.40
  -2   0   0  300.37   18.10
  -2   0   0  274.87   14.40
  -2   0   0  289.07   17.10
  -3   0   0   -1.50    2.20
  -3   0   0   -0.40    0.70
   3   0   0    0.00    1.00
  -3   0   0   -2.90    1.80
   4   0   0   18.80    2.80
  -4   0   0   21.10    6.20
  -4   0   0   21.70    1.80
  -4   0   0   21.50    3.20
  -4   0   0   37.00    8.40
  -5   0   0   -1.30    1.30
   5   0   0    4.00    1.90
  -5   0   0   -0.40    1.50
   5   0   0   -0.10    1.50
  -5   0   0    0.10    1.20
  -6   0   0   31.50    5.00
   6   0   0   26.10    4.10
  -6   0   0   29.50    4.60
   6   0   0   35.80    4.80
   6   0   0   36.60    4.20
  -7   0   0    1.20    2.40
   7   0   0    2.90    2.80
   7   0   0   -0.70    2.20
  -7   0   0    1.80    2.10
   8   0   0   23.50    4.20
  -8   0   0   24.00    4.20
  -8   0   0   15.60    3.00
   8   0   0   27.40    3.70
  -9   0   0    0.20    1.40
  -9   0   0    1.50    2.20
   9   0   0    0.40    2.00
   0  -1   0    0.40    0.40
   0   1   0    0.50    0.60
   0  -1   0    0.60    0.40
   1  -1   0   25.30    3.30
  -1   1   0   25.40    3.20
   1   1   0   29.20    3.30
  -1  -1   0   28.40    1.90
   1   1   0   33.40    2.20
   2   1   0   31.10    2.90
  -2   1   0   31.20    4.60
   2   1   0   33.10    4.90
  -2   1   0   32.10    1.80
  -2   1   0   32.60    4.80
  -2  -1   0   31.50    4.50
  -2  -1   0   32.30    2.40
  -3  -1   0   62.19    3.70
  -3   1   0   62.19    7.60
  -3  -1   0   59.19    6.70
   3   1   0   63.49    4.60
  -3   1   0   53.99    3.20
  -3  -1   0   56.89    7.00
  -3   1   0   70.59    8.50
  -4  -1   0   99.39    7.00
   4   1   0  111.59    7.30
  -4   1   0  104.89    7.00
   4  -1   0  108.99    6.80
  -4  -1   0  115.89   12.60
  -4   1   0   98.89   12.10
  -4  -1   0  122.99   12.20
  -4  -1   0  120.79    6.70
  -4   1   0  112.69   11.60
  -5  -1   0    2.00    1.70
   5   1   0    1.30    1.80
  -5   1   0   -1.00    1.30
   5  -1   0   -0.50    1.60
  -5   1   0    3.90    1.40
   5  -1   0    2.70    2.10
  -5  -1   0    1.60    1.40
  -5   1   0   -0.20    1.50
   5   1   0   -0.30    1.50
   5  -1   0    0.30    1.40
  -6   1   0    8.60    1.60
  -6  -1   0   13.40    2.50
  -6   1   0    8.10    2.60
   6   1   0   14.50    4.40
   6   1   0    6.70    3.10
  -6   1   0   10.50    3.40
   6  -1   0   10.90    3.40
  -6  -1   0    9.00    2.60
  -6  -1   0   10.60    2.50
   6   1   0    7.90    2.60
   6  -1   0    4.30    2.80
   6  -1   0    5.20    2.70
   7   1   0   77.29    7.30
  -7  -1   0   74.89    7.00
  -7   1   0   82.99    7.50
   7   1   0   90.99    6.90
  -7   1   0   79.99    6.80
  -7  -1   0   84.69    6.60
   7  -1   0   83.69    6.40
   7  -1   0   89.39    7.50
   8  -1   0    0.20    1.70
  -8   1   0    3.40    2.30
   8  -1   0    3.30    2.10
  -8  -1   0    3.60    2.90
   8   1   0   -1.20    2.50
  -8  -1   0   -0.80    1.80
  -8   1   0   -0.20    2.30
   9  -1   0    9.50    2.20
   9   1   0    2.50    2.40
  -9  -1   0   15.00    2.30
  -9   1   0   11.40    2.00
   0  -2   0 1881.41   87.99
   0  -2   0 1771.82   89.09
   0   2   0 1790.12   89.19
   0   2   0 1709.43   87.89
  -1  -2   0  632.44   33.40
  -1   2   0  650.03   33.80
  -1  -2   0  647.94   32.00
   1  -2   0  672.73   31.70
  -1  -2   0  628.24   31.80
   1   2   0  609.34   34.20
   1   2   0  641.14   32.00
  -2   2   0 1149.48   58.49
   2   2   0 1090.79   55.39
   2  -2   0 1206.28   58.49
   2   2   0 1145.89   58.19
   2  -2   0 1106.39   54.89
  -2  -2   0 1111.19   54.99
  -2  -2   0 1076.29   57.69
  -2   2   0 1006.30   54.49
  -3   2   0   18.70    2.50
   3   2   0   10.10    1.90
  -3   2   0   26.50    5.90
  -3  -2   0   17.80    4.40
  -3   2   0   12.00    3.50
  -4   2   0    5.10    4.30
  -4  -2   0    6.90    4.10
  -4   2   0    5.00    1.80
   4  -2   0    2.90    1.30
  -4   2   0    6.30    4.70
   4   2   0    2.80    1.50
  -4  -2   0    3.50    1.60
  -5   2   0   30.80    4.20
  -5   2   0   32.60    3.30
   5   2   0   32.50    3.80
  -5   2   0   37.30    3.80
  -5  -2   0   38.70    3.50
   5  -2   0   31.80    4.00
   5  -2   0   34.30    3.50
  -5  -2   0   33.30    3.90
   5   2   0   34.10    4.30
   5  -2   0   31.70    3.70
   6   2   0    5.20    2.40
   6  -2   0    4.00    2.40
  -6   2   0    2.40    1.40
  -6  -2   0    2.70    1.80
  -6  -2   0    2.30    1.60
  -6   2   0    4.70    2.60
  -6  -2   0    1.70    2.00
   6   2   0    1.00    3.10
  -6   2   0    1.90    2.00
   6   2   0    8.10    3.30
   6  -2   0    5.90    2.30
  -7   2   0   11.90    3.10
  -7  -2   0   12.70    2.70
  -7  -2   0   13.00    3.20
   7  -2   0   15.90    3.50
  -7  -2   0   11.10    2.70
   7   2   0    6.70    3.60
  -7   2   0   13.60    3.10
   7   2   0   13.00    3.20
   7  -2   0   11.50    2.30
  -8   2   0    5.30    2.80
  -8  -2   0    4.40    2.40
   8   2   0    6.60    2.40
   8  -2   0    4.00    2.30
  -8   2   0    9.90    2.60
  -8  -2   0    4.40    2.00
  -9   2   0   14.40    2.30
   9   2   0    6.30    1.60
  -9  -2   0    6.90    1.70
  -9  -2   0   11.10    2.90
  -9   2   0    8.50    2.60
   0  -3   0    1.50    1.50
   0   3   0    0.80    1.00
   0   3   0    1.80    1.50
   0  -3   0    0.40    0.80
   1  -3   0  540.15   29.10
   1   3   0  549.35   28.60
   1  -3   0  615.24   31.10
  -1   3   0  604.34   31.30
  -1   3   0  546.75   28.20
  -1  -3   0  585.64   28.40
  -1  -3   0  540.35   30.30
  -1  -3   0  553.34   28.70
  -2  -3   0  209.08   11.10
  -2  -3   0  196.98   13.80
   2  -3   0  229.48   14.90
   2   3   0  209.68   14.10
  -2   3   0  201.78   14.50
   2   3   0  204.68   11.60
  -3   3   0    8.60    1.80
   3  -3   0    8.20    1.30
  -3  -3   0    7.90    1.50
  -3  -3   0    5.30    3.70
   3   3   0    8.70    5.20
  -3   3   0    5.70    3.60
  -3   3   0    5.00    2.50
   3   3   0   18.40    3.80
  -4  -3   0   15.70    2.40
  -4   3   0   12.20    2.20
  -4   3   0   15.50    5.30
   4  -3   0   19.70    3.10
   4  -3   0   19.90    2.40
  -4   3   0   20.20    2.50
   4  -3   0   17.50    2.40
   4   3   0   13.00    2.40
  -5   3   0   79.09    6.50
  -5   3   0   82.29    5.60
   5   3   0   79.29    7.00
   5  -3   0   89.99    6.60
  -5  -3   0   88.79    6.00
  -5  -3   0   87.79    6.30
   5   3   0   77.69    5.90
   5  -3   0   73.29    5.50
  -5   3   0   82.49    6.20
   6  -3   0   43.40    5.00
  -6   3   0   45.90    6.40
  -6  -3   0   33.50    4.00
  -6   3   0   38.60    5.60
  -6  -3   0   42.80    6.20
  -6   3   0   41.60    5.90
   6   3   0   42.30    4.80
  -6  -3   0   40.70    4.80
   6  -3   0   44.20    5.90
  -7  -3   0    4.50    2.70
   7  -3   0    2.70    3.30
  -7  -3   0   10.10    3.00
   7   3   0    0.90    3.20
  -7   3   0    6.20    2.80
  -7  -3   0    4.40    2.50
   8  -3   0    1.70    2.30
  -8   3   0    1.30    2.00
   8   3   0    1.50    2.10
  -8  -3   0    1.30    1.60
  -8   3   0   -0.80    2.20
  -8  -3   0    2.10    1.80
  -8  -3   0    0.80    2.10
   9   3   0    2.80    1.40
  -9   3   0    1.70    2.00
  -9   3   0    2.70    1.40
  -9  -3   0    1.70    1.10
  -9  -3   0    2.10    1.20
   0  -4   0  712.93   36.80
   0   4   0  691.73   36.80
   0   4   0  747.83   39.40
   0  -4   0  778.42   39.60
   1   4   0  129.39    7.80
  -1   4   0  139.99   10.60
  -1  -4   0  128.29    9.70
   1  -4   0  141.69   10.50
   1  -4   0  136.69    7.30
  -1   4   0  127.79    7.20
   1   4   0  125.09    9.70
  -2   4   0   65.89    7.80
   2   4   0   58.89    4.80
  -2  -4   0   48.60    6.50
   2   4   0   65.99    7.10
   2  -4   0   65.59    3.80
  -3   4   0    3.70    1.60
  -3  -4   0   -0.50    3.30
   3   4   0    4.10    3.80
  -3   4   0    6.00    4.40
  -4   4   0    4.50    1.70
   4  -4   0    2.50    1.30
   4  -4   0    0.40    1.60
  -4   4   0    4.80    1.90
  -4  -4   0   -3.20    2.20
  -4  -4   0   -1.70    2.30
   4   4   0    1.40    1.70
  -5   4   0    5.70    2.40
  -5  -4   0    7.50    2.00
  -5  -4   0    3.30    2.20
  -5   4   0    9.10    2.60
   5  -4   0    6.10    2.80
   5   4   0    6.70    2.70
   5   4   0    8.40    2.30
  -5  -4   0    6.40    2.30
  -5   4   0    7.40    2.10
   6   4   0   36.80    4.60
  -6  -4   0   33.10    3.90
  -6   4   0   30.10    4.90
  -6  -4   0   34.40    4.30
   6  -4   0   31.50    4.70
  -6   4   0   38.90    4.40
  -6   4   0   32.30    3.80
   7  -4   0    4.90    2.90
  -7  -4   0    4.90    2.80
  -7   4   0    4.80    2.70
  -7  -4   0    5.00    2.20
  -7   4   0    4.80    2.60
  -8  -4   0    1.60    1.40
  -8   4   0    1.60    2.40
   8   4   0    1.30    2.00
  -8  -4   0    3.60    1.70
  -8   4   0    1.30    2.00
   9   4   0    1.20    1.20
  -9   4   0    3.90    2.00
  -9   4   0    5.10    1.40
  -9  -4   0    2.80    0.80
  -9  -4   0    2.80    1.40
   0   5   0   -2.50    1.90
   0  -5   0    4.90    2.50
   0   5   0   -0.20    1.00
  -1  -5   0  257.47   16.80
   1  -5   0  238.38   13.30
   1  -5   0  255.67   17.30
  -1   5   0  259.67   17.40
   1   5   0  252.47   18.10
   1   5   0  232.08   13.70
  -1   5   0  254.47   13.50
   2  -5   0   21.80    7.00
   2   5   0   27.40    3.40
  -2  -5   0   22.30    5.30
   2   5   0   27.80    5.10
  -2   5   0   29.70    6.10
   2  -5   0   25.90    2.20
   3  -5   0   16.00    2.90
  -3  -5   0   15.60    4.20
   3   5   0    7.60    2.20
   3  -5   0    9.90    2.00
  -3   5   0   11.90    2.20
   3  -5   0   13.90    2.90
  -3   5   0   13.70    2.40
   4  -5   0  368.06   23.00
   4   5   0  405.76   24.10
   4  -5   0  444.16   22.80
  -4   5   0  432.46   22.70
   4  -5   0  459.15   23.40
  -4   5   0  438.86   23.10
   4  -5   0  444.16   23.30
  -4  -5   0  450.05   23.30
  -5  -5   0  111.59    7.50
  -5   5   0  112.49    8.00
  -5   5   0   95.49    7.70
   5   5   0   95.99    7.10
  -5   5   0   99.59    7.10
   5  -5   0  110.89    7.90
  -6  -5   0    1.00    2.10
   6  -5   0   -0.40    2.60
  -6  -5   0    1.00    1.60
  -6   5   0   -1.50    2.00
   6   5   0    0.00    2.10
  -6   5   0    0.90    1.70
  -6   5   0    0.60    2.20
  -7   5   0   19.60    4.10
   7   5   0   16.40    3.10
  -7  -5   0   13.30    2.80
  -7   5   0   11.20    2.80
  -7  -5   0   10.90    2.10
   8   5   0    0.10    2.20
  -8  -5   0    0.10    1.20
  -8  -5   0    0.90    1.10
  -8   5   0   -0.10    1.30
  -8   5   0   -0.20    1.90
   0   6   0   26.20    4.90
   0  -6   0   25.80    3.90
   0   6   0   19.20    2.70
   0  -6   0   15.80    5.40
   0  -6   0   26.20    3.80
   1  -6   0  336.87   17.60
   1   6   0  309.17   20.90
  -1  -6   0  309.07   21.70
   1   6   0  315.07   17.80
  -1  -6   0  320.27   18.00
  -1  -6   0  322.67   17.70
   1  -6   0  338.37   18.10
   2   6   0   16.90    3.00
  -2  -6   0   18.80    4.70
   2  -6   0   18.00    3.60
  -2  -6   0   26.20    4.20
   2  -6   0   21.50    3.20
  -3   6   0   25.40    3.30
   3  -6   0   17.90    2.50
   3   6   0   22.00    4.00
  -3  -6   0   18.50    4.60
  -3  -6   0    8.50    4.20
   3  -6   0   28.40    3.70
  -3   6   0   19.70    3.00
   3  -6   0   26.80    4.00
   4  -6   0    0.80    2.20
  -4   6   0    1.60    2.10
  -4  -6   0    0.00    3.40
   4  -6   0   -1.00    2.00
  -4   6   0    0.50    1.70
  -5  -6   0  119.69    8.80
   5  -6   0  129.79    8.70
  -5   6   0  141.79    8.50
  -5  -6   0  122.59    7.90
   5   6   0  116.59    8.40
  -5   6   0  135.19    9.20
  -6  -6   0    5.20    2.50
  -6  -6   0    6.40    2.00
   6   6   0    4.60    2.40
  -6   6   0    6.20    2.80
  -6   6   0    1.60    2.40
  -6   6   0    6.60    2.10
  -7   6   0   16.60    3.00
  -7  -6   0   14.90    2.80
   7   6   0   16.30    3.00
  -7  -6   0   18.20    2.30
  -7   6   0   18.90    3.40
   8   6   0    1.00    1.50
  -8  -6   0    0.90    1.10
  -8  -6   0    0.30    1.30
   0  -7   0   -4.50    3.80
   0   7   0   -1.00    1.30
   0  -7   0    0.60    2.40
  -1  -7   0   30.00    5.90
  -1  -7   0   21.60    3.90
   1  -7   0   24.90    3.60
   1   7   0   20.40    3.50
   1  -7   0   15.80    4.40
  -1   7   0   22.20    3.00
   2  -7   0   10.40    4.10
  -2  -7   0   12.30    4.90
  -2  -7   0    8.50    5.80
   2   7   0   11.80    3.00
   2  -7   0   19.80    3.40
  -3   7   0   34.20    3.80
  -3  -7   0   32.80    4.50
   3  -7   0   29.30    4.80
  -3  -7   0   29.60    6.40
  -3  -7   0   25.60    5.80
   4  -7   0   27.20    4.00
  -4   7   0   34.40    4.20
   4  -7   0   29.60    4.40
  -4  -7   0   31.70    5.80
  -5  -7   0   84.79    7.40
  -5  -7   0   93.59    5.80
  -5   7   0   86.19    8.20
   5  -7   0   76.39    6.50
  -5   7   0   84.79    7.40
   5   7   0   96.49    7.70
   6   7   0    7.20    2.40
  -6  -7   0    3.70    1.20
  -6  -7   0    4.90    1.80
  -6  -7   0    5.90    2.10
  -6   7   0   10.50    2.60
  -7  -7   0    0.10    1.50
   7   7   0    2.20    2.10
  -7  -7   0    2.20    1.70
  -8  -7   0    1.10    0.80
   8   7   0   -0.20    1.10
  -8  -7   0    0.00    1.80
   0  -8   0   33.00    8.40
   0  -8   0   52.59    5.70
   1  -8   0  105.39   11.30
   1   8   0   99.29    8.20
  -1  -8   0   83.39   14.80
  -1  -8   0  114.69    7.70
   1  -8   0   98.69    9.00
  -1  -8   0   95.99    9.50
  -2   8   0    0.70    2.00
  -2  -8   0    2.50    6.40
   2  -8   0    5.70    5.20
  -2  -8   0   -2.40    7.60
   2  -8   0    3.90    2.80
   3  -8   0    3.00    2.40
  -3  -8   0   -0.10    1.90
   3  -8   0    4.50    3.30
  -3   8   0    2.40    2.00
  -3  -8   0    3.70    7.30
  -3  -8   0   -6.50    4.00
  -4  -8   0    0.10    1.10
  -4  -8   0   -1.10    2.30
  -4   8   0    1.40    2.50
   4  -8   0    3.60    2.40
  -4  -8   0   -5.00    2.50
  -4  -8   0   -4.00    7.40
   4  -8   0    2.70    3.00
   5   8   0    1.60    1.90
  -5  -8   0    3.50    2.30
  -5  -8   0    4.60    2.10
  -5  -8   0    2.50    2.30
   5  -8   0    1.00    1.90
  -6  -8   0    1.10    1.50
  -6  -8   0    5.20    1.70
   6   8   0    0.90    2.10
  -7  -8   0    2.00    1.40
   7   8   0    2.50    1.50
   0  -9   0   -3.30    9.40
   0  -9   0   -5.10    4.50
  -1  -9   0    3.70    9.90
   1  -9   0    3.40    8.50
  -1  -9   0    4.00    7.10
  -1  -9   0    0.40    2.10
   1  -9   0    1.90    3.80
   2  -9   0   -3.70    2.90
  -2  -9   0    0.60    7.60
   2  -9   0   -3.50    6.90
  -2  -9   0   -1.20    1.90
  -2  -9   0    2.00    8.20
  -3  -9   0   13.50    3.20
  -3  -9   0   20.60    8.20
   3  -9   0    8.90    5.30
  -3  -9   0   16.20    3.70
   3  -9   0   12.90    4.20
  -4  -9   0    2.50    2.20
   4   9   0    1.90    1.70
   4  -9   0    6.00    3.10
   4  -9   0    0.30    2.20
  -4  -9   0    0.70    3.00
   5   9   0    1.50    2.20
   5  -9   0    2.70    1.50
  -5  -9   0    5.10    1.90
  -5  -9   0    3.70    2.50
   6   9   0    5.70    1.80
  -6  -9   0    5.50    1.80
   0 -10   0   -1.80    6.60
   0 -10   0    3.90    8.90
  -1 -10   0    1.00    7.90
  -1 -10   0    0.10    8.00
   1 -10   0    1.00    5.70
   1 -10   0    5.80    8.80
   2 -10   0   -0.80    4.40
  -2 -10   0    1.70    1.80
   2 -10   0   -3.20    7.00
  -2 -10   0    4.90    7.60
  -2 -10   0    1.20    3.90
   3 -10   0    6.30    4.10
  -3 -10   0    5.70    1.90
  -3 -10   0    6.20    5.30
   3 -10   0    4.30    4.90
  -4 -10   0    0.30    1.30
   4 -10   0    0.20    2.20
  -4 -10   0    0.80    2.20
   4  10   0    0.90    1.50
   5  10   0   -0.80    1.10
   0 -11   0   -1.70    5.00
   0 -11   0    0.90    6.40
   1 -11   0   34.50    7.70
  -1 -11   0   25.70    5.30
  -1 -11   0   25.80    7.10
   1 -11   0   22.00    5.60
  -2 -11   0    8.10    6.50
   2 -11   0    2.40    4.20
   2 -11   0    6.10    6.10
   3  11   0    0.20    1.10
   3 -11   0   -0.50    2.40
  -3 -11   0   -0.70    1.90
  -3 -11   0   -0.10    1.10
   3 -11   0   -1.40    2.10
   4  11   0    4.40    1.20
  -4 -11   0    3.20    1.50
  -4 -11   0    3.20    1.20
   0 -12   0    5.40    3.00
   0 -12   0    4.40    1.80
   1 -12   0   -0.60    2.10
  -1 -12   0   -0.30    1.90
   1 -12   0   -0.50    1.30
   2  12   0    1.40    1.00
  -2 -12   0   -0.20    1.20
   2 -12   0    1.50    1.20
   0   0  -1    0.20    0.30
   0   0   1   -0.20    0.30
   1   0   1  177.08    8.70
  -1   0   1  155.38    8.60
  -1   0  -1  179.58   10.20
   1   0   1  176.28   10.20
   1   0  -1  167.58    9.80
  -2   0   1  152.58   10.50
  -2   0   1  151.38   10.80
  -2   0  -1  159.98   11.00
  -2   0  -1  149.49    7.80
  -2   0   1  153.78    7.90
   2   0   1  157.48    8.20
  -3   0  -1    6.80    2.90
   3   0   1    7.10    1.90
  -3   0   1    5.50    2.90
  -3   0  -1   10.80    3.80
  -3   0   1    6.50    3.90
  -3   0   1   10.00    1.30
  -4   0   1   16.80    1.80
  -4   0   1   18.40    2.80
  -4   0  -1   21.80    5.40
   4   0  -1   19.20    2.70
  -4   0   1   17.60    4.80
  -4   0  -1   19.90    2.80
  -4   0   1   18.80    6.30
  -4   0  -1   20.70    6.40
   4   0   1   17.60    2.70
  -5   0  -1   14.80    2.00
   5   0  -1   19.40    3.10
  -5   0  -1   11.50    2.20
  -5   0  -1   15.20    2.70
   5   0   1   11.20    2.80
  -5   0   1   17.90    2.80
   5   0  -1   15.40    2.80
  -5   0   1   21.60    3.30
   5   0   1   20.80    4.00
   5   0   1   15.20    2.70
   6   0  -1    2.30    2.70
  -6   0   1    5.10    2.40
   6   0   1    5.10    2.40
   6   0   1    7.20    2.70
  -6   0  -1    6.00    3.40
   6   0   1    3.30    2.70
   6   0  -1    5.50    2.40
  -6   0  -1    8.70    2.80
  -6   0   1    9.60    2.50
   6   0  -1    7.40    2.90
  -6   0  -1    5.10    1.40
  -7   0   1   18.30    3.30
   7   0  -1   19.50    4.10
   7   0   1   20.60    4.10
   7   0  -1   19.00    3.40
  -7   0  -1   17.70    3.60
  -7   0   1   13.50    3.30
   7   0   1   19.30    5.40
  -7   0  -1   17.90    3.40
   8   0  -1   51.29    4.90
  -8   0  -1   40.50    4.60
   8   0   1   34.30    4.80
  -8   0   1   54.69    5.10
  -8   0  -1   54.49    6.10
  -8   0   1   53.09    5.90
   8   0  -1   45.50    5.40
   8   0   1   47.10    4.40
   9   0   1    1.00    1.60
  -9   0   1    4.60    2.60
  -9   0  -1    1.80    1.50
  -9   0  -1    1.80    2.00
  -9   0   1    1.30    1.30
   0  -1  -1 3989.40  190.28
   0   1  -1 3678.13  189.38
   0   1   1 3918.31  190.28
  -1   1   1 3273.67  156.98
   1   1  -1 3109.89  156.28
  -1  -1  -1 3054.59  156.68
  -1  -1   1 3065.89  156.18
  -1   1  -1 3271.87  156.58
   1   1   1 3024.70  156.68
  -1   1  -1 3259.97  156.88
   1  -1  -1 3239.58  156.78
  -2  -1  -1 1047.40   57.09
  -2  -1  -1 1089.49   54.29
  -2   1   1 1167.48   57.59
  -2   1   1  986.50   54.09
   2   1   1 1143.99   54.69
   2  -1  -1 1142.69   57.39
   2   1   1 1110.19   57.59
  -2  -1   1 1092.89   54.29
  -2   1  -1 1193.68   59.09
  -2  -1   1 1041.80   56.59
   3  -1   1   81.39    4.90
  -3  -1  -1   75.49    8.30
  -3   1   1   82.59    8.80
   3   1  -1   84.79    5.40
  -3   1   1   82.69    4.40
  -3   1   1   77.09    8.20
   3   1   1   69.79    6.60
  -3  -1   1   83.99    4.70
  -3   1  -1  103.59   10.40
  -3   1  -1   77.99    8.20
  -3  -1   1   72.19    7.70
   4  -1   1    9.50    1.80
  -4  -1  -1   12.10    4.30
  -4   1   1    9.60    1.20
  -4   1   1   10.20    4.70
  -4   1   1    7.20    1.80
  -4  -1  -1   13.30    4.60
   4   1  -1   12.90    2.40
  -4  -1  -1   14.40    2.40
  -4   1   1   12.10    5.50
  -4  -1   1   14.80    4.90
  -4   1  -1    5.50    4.40
   4   1   1   14.40    2.40
  -4   1  -1   13.80    2.30
  -4   1  -1   10.00    4.50
  -4  -1   1   11.50    2.30
  -4  -1   1   11.40    4.30
  -4  -1   1   12.10    2.80
   5  -1   1   64.89    4.90
   5  -1   1   65.09    5.00
   5   1  -1   60.99    5.50
  -5   1   1   61.69    5.40
  -5  -1  -1   58.29    5.20
  -5   1   1   58.39    5.00
   5   1  -1   58.69    5.00
  -5  -1  -1   65.59    5.00
  -5  -1   1   62.09    4.70
  -5   1  -1   62.99    5.20
  -5  -1   1   57.89    5.30
   5  -1  -1   64.79    5.00
   5  -1  -1   44.60    5.90
  -5   1  -1   59.59    5.80
   5  -1  -1   70.49    5.70
   5   1   1   53.59    8.00
   5   1   1   66.69    5.10
   6  -1   1   24.20    4.20
  -6  -1  -1   31.40    4.70
   6  -1   1   22.90    4.20
  -6   1   1   28.80    3.70
  -6   1   1   35.20    5.40
  -6  -1  -1   29.40    3.40
   6   1  -1   24.70    3.60
  -6  -1  -1   29.80    3.80
   6  -1   1   32.40    4.30
   6   1  -1   36.30    6.40
   6   1  -1   20.30    4.00
  -6   1   1   20.60    2.70
   6   1   1   20.50    3.90
   6  -1  -1   29.40    4.20
   6  -1  -1   23.30    3.90
   6   1   1   35.10    4.60
  -6   1  -1   27.90    2.90
  -6  -1   1   26.50    3.40
   6  -1  -1   27.10    3.70
  -6   1  -1   32.30    4.60
   6   1   1   29.70    3.90
  -6  -1   1   28.70    3.70
  -6  -1   1   28.60    4.60
   7   1  -1   17.30    3.40
  -7  -1  -1   15.60    3.20
   7   1  -1    7.90    3.20
  -7   1   1   17.10    3.20
  -7  -1  -1   13.80    3.60
   7  -1   1   11.10    2.70
   7  -1   1    8.70    3.30
  -7   1   1   14.40    3.50
  -7   1  -1   11.40    3.00
   7  -1  -1   19.40    3.80
   7   1   1   12.20    3.10
  -7   1  -1   13.10    3.50
   7   1   1   18.40    4.00
  -7  -1   1    9.40    2.60
  -7  -1   1   17.50    3.60
   7  -1  -1   18.10    3.20
   8   1  -1    4.90    2.60
   8   1  -1    4.10    2.20
  -8  -1  -1    5.20    2.70
  -8  -1  -1    0.70    1.90
  -8   1   1    0.80    2.00
  -8   1   1    5.40    2.90
   8  -1   1    4.10    2.40
   8  -1  -1    7.00    2.00
  -8  -1   1    4.60    2.80
   8   1   1    0.20    2.60
   8   1   1    6.30    2.20
  -8   1  -1    7.40    3.20
   8  -1  -1    1.60    2.40
  -8   1  -1    1.20    2.00
  -8  -1   1    6.20    2.10
  -9  -1  -1   26.70    3.10
  -9   1   1   33.20    4.20
  -9  -1  -1   28.10    3.40
   9  -1   1   12.10    2.60
   9   1  -1   20.60    2.50
  -9   1   1   22.10    2.40
  -9   1   1   14.40    2.30
  -9   1  -1   27.20    4.10
  -9  -1   1   29.00    3.50
  -9   1  -1   17.60    2.60
  -9  -1   1   23.50    2.90
   9   1   1   14.80    2.50
   0   2  -1 3705.43  184.78
   0  -2  -1 3757.12  184.48
   0  -2   1 3803.62  184.78
   0   2   1 3741.53  185.68
   1  -2   1   44.90    4.40
  -1   2   1   39.50    4.40
   1  -2   1   44.40    2.20
   1   2  -1   34.00    2.90
  -1  -2  -1   37.00    2.80
   1   2  -1   32.20    3.80
   1  -2  -1   39.70    2.60
   1  -2  -1   42.10    4.60
  -1  -2   1   35.20    2.70
   1   2   1   35.00    2.90
  -1   2  -1   45.90    4.30
   1   2   1   34.30    4.30
  -1  -2   1   34.90    3.60
  -2  -2  -1  320.37   15.60
  -2  -2  -1  302.87   18.50
   2  -2   1  309.27   15.30
  -2   2   1  306.37   19.60
   2   2  -1  284.77   18.50
  -2  -2   1  278.97   17.80
  -2  -2   1  294.57   15.60
   2  -2  -1  298.07   15.60
  -2   2  -1  321.87   18.80
   2   2   1  308.87   18.80
   2   2   1  319.97   16.10
  -3   2   1  242.68   17.50
  -3   2   1  189.18    9.90
  -3  -2  -1  208.68   16.00
  -3   2   1  189.28   11.10
  -3   2   1  204.38   15.50
   3   2  -1  204.08   11.20
  -3   2  -1  184.48   14.90
  -3   2  -1  189.08   14.70
  -3  -2   1  177.28   13.50
   3   2   1  202.78   15.40
  -3  -2   1  202.88   10.50
  -3   2  -1  190.68   11.10
   3   2   1  206.18   11.30
  -3  -2   1  185.08   14.00
  -4   2   1  122.29   13.80
   4   2  -1  136.69    8.60
  -4   2   1  121.59   14.10
   4  -2   1  142.29    7.70
  -4  -2  -1  122.89    8.00
  -4  -2  -1  131.69   13.20
  -4   2   1  138.09    8.40
  -4  -2   1  134.29    7.60
  -4  -2   1  128.59    8.20
  -4   2  -1  130.09    8.20
  -4   2  -1  150.48   16.20
   4   2   1  131.49    8.50
  -4  -2   1  121.89   12.90
  -4   2  -1  151.88   14.90
   5  -2   1    8.90    1.90
  -5  -2  -1    7.20    1.90
   5  -2   1    8.00    2.00
  -5   2   1    4.90    2.00
  -5  -2  -1    8.80    2.20
   5  -2   1   11.20    2.70
   5   2  -1    8.90    2.30
  -5   2   1   10.30    3.00
   5   2  -1    6.90    2.10
   5   2   1    8.30    2.40
  -5   2  -1    4.30    2.00
  -5   2  -1    8.60    2.30
   5  -2  -1    7.40    2.20
  -5  -2   1    8.00    2.00
   5  -2  -1   10.50    2.70
   5   2   1   12.10    2.70
   5  -2  -1    6.00    1.80
  -5  -2   1   11.20    2.40
  -5   2  -1    8.20    1.70
  -6  -2  -1   19.50    2.90
   6  -2   1   23.50    3.50
  -6   2   1   20.40    2.70
  -6   2   1   20.90    3.50
  -6  -2  -1   22.10    3.70
   6   2  -1   16.00    3.80
   6   2  -1   19.90    3.40
   6  -2   1   27.60    4.20
  -6  -2  -1   17.90    3.10
  -6   2   1   25.90    3.70
  -6  -2   1   21.40    3.00
   6  -2  -1   23.10    3.30
  -6  -2   1   18.70    3.10
   6   2   1   23.20    4.20
   6   2   1   26.50    4.50
   6  -2  -1   21.70    3.90
   6   2   1   25.50    3.60
  -6   2  -1   16.80    3.10
  -6   2  -1   18.20    3.30
  -6  -2   1   16.70    3.10
  -6   2  -1   24.50    3.00
   7  -2   1    4.00    2.00
  -7  -2  -1    3.00    2.30
  -7  -2  -1    8.10    2.80
  -7   2   1    6.10    2.90
   7   2  -1    3.80    2.70
  -7   2   1    4.20    2.30
   7  -2   1    8.00    2.90
  -7  -2  -1    5.10    2.30
  -7   2  -1    5.90    2.70
  -7  -2   1    2.50    2.10
  -7   2  -1    3.00    1.60
  -7  -2   1    2.70    2.00
   7  -2  -1    2.80    2.70
  -7  -2   1    5.00    2.50
   7  -2  -1    2.40    2.00
  -7   2  -1    8.00    2.60
   7   2   1    4.90    2.70
   7   2   1    1.40    2.50
  -8  -2  -1   19.40    3.50
   8   2  -1   18.10    3.20
   8  -2   1   11.60    3.00
  -8  -2  -1   23.50    3.30
  -8   2   1   15.00    3.50
  -8   2   1   18.70    3.20
   8  -2  -1   13.60    3.30
  -8  -2   1   20.70    3.10
   8   2   1   21.00    3.20
   8   2   1   15.00    3.90
  -8   2  -1   20.20    4.20
  -8   2  -1   17.60    3.00
  -8  -2   1   21.50    3.50
   9  -2   1    0.50    1.60
   9   2  -1    1.80    1.30
  -9  -2  -1    0.20    1.10
  -9  -2  -1    4.90    2.80
  -9   2   1    2.70    2.10
  -9   2   1    2.20    1.40
  -9   2  -1   -0.40    1.20
  -9  -2   1   -3.70    2.50
  -9  -2   1    1.20    1.20
  -9   2  -1   -0.30    2.00
   0  -3   1  725.83   34.80
   0   3   1  686.03   37.20
   0  -3  -1  745.53   35.20
   0  -3   1  750.72   36.40
   0   3   1  678.13   35.00
   0   3  -1  678.13   36.20
   0  -3  -1  685.23   37.20
   0   3  -1  659.03   34.80
   0  -3   1  691.43   34.90
   1   3  -1 1221.98   65.89
  -1   3   1 1360.66   67.59
  -1   3   1 1285.37   64.39
   1  -3   1 1399.16   66.89
   1  -3   1 1411.36   64.19
  -1  -3  -1 1161.28   64.69
   1   3  -1 1261.27   64.69
  -1  -3  -1 1263.47   66.99
   1   3   1 1303.07   67.69
   1  -3  -1 1309.77   68.09
  -1   3  -1 1360.66   66.99
  -1  -3   1 1234.38   65.79
   1  -3  -1 1394.96   64.49
  -1  -3   1 1270.37   64.39
  -1   3  -1 1277.07   64.19
   1   3   1 1345.07   65.19
  -2  -3  -1  263.67   16.90
   2   3  -1  240.38   13.80
   2   3  -1  254.57   16.10
  -2   3   1  247.58   17.20
  -2  -3   1  258.47   16.00
   2  -3  -1  260.87   13.30
   2   3   1  242.18   16.70
  -2   3  -1  258.87   16.90
  -2  -3   1  259.97   13.40
   2  -3  -1  274.17   17.20
   2   3   1  258.97   13.90
  -3   3   1   31.00    3.30
  -3   3   1   29.50    6.80
   3   3  -1   27.80    3.40
  -3   3   1   28.40    1.70
   3   3   1   25.80    3.30
  -3  -3   1   30.20    2.70
  -3   3  -1   28.40    8.70
   3  -3  -1   27.70    2.50
  -3   3  -1   29.10    3.10
  -3  -3   1   35.70    8.60
   3   3   1   21.60    4.90
  -3   3  -1   22.10    5.60
  -4   3   1   20.30    8.10
   4  -3   1   25.10    2.90
  -4  -3  -1   16.30    2.60
  -4   3   1   21.50    2.90
   4  -3   1   26.80    3.50
  -4   3   1   25.50    3.30
  -4   3   1   15.70    8.40
   4   3  -1   22.90    4.10
  -4   3  -1   19.00    6.80
   4  -3  -1   26.20    3.50
   4   3   1   22.80    3.60
  -4   3  -1   23.70    3.00
   4  -3  -1   23.70    3.30
  -4   3  -1   22.50    3.30
  -4  -3   1   20.90    2.50
  -4  -3   1   20.50    3.20
   5  -3   1   34.30    4.40
   5   3  -1   33.20    3.90
  -5  -3  -1   37.10    4.00
  -5   3   1   42.40    3.50
   5   3  -1   31.80    4.50
  -5   3   1   37.80    4.20
  -5   3   1   43.80    4.80
   5  -3   1   21.50    3.30
   5   3   1   36.10    4.80
   5  -3  -1   35.60    3.50
   5  -3  -1   36.00    4.60
  -5  -3   1   29.70    3.90
  -5   3  -1   33.70    4.30
  -5  -3   1   28.20    3.40
  -5   3  -1   33.90    4.40
   5   3   1   25.60    3.80
  -5   3  -1   32.80    3.40
  -6   3   1    2.50    1.50
  -6  -3  -1   -0.10    1.80
  -6   3   1    4.10    2.80
   6   3  -1    3.60    2.30
  -6   3   1    4.30    4.00
  -6  -3  -1    1.20    2.00
   6  -3   1    2.00    2.50
   6  -3  -1    0.90    2.40
  -6  -3   1    2.70    2.20
  -6   3  -1    2.40    1.70
  -6  -3   1    1.70    1.90
  -6   3  -1    3.80    2.80
   6  -3  -1    0.80    2.00
  -6   3  -1    1.00    2.20
   6   3   1    4.10    2.40
   7   3  -1   69.39    8.00
  -7  -3  -1   67.79    6.20
  -7  -3  -1   67.49    6.10
  -7   3   1   62.09    6.30
   7  -3   1   47.50    6.90
  -7  -3  -1   59.79    6.60
  -7   3  -1   60.89    6.80
  -7  -3   1   62.59    5.90
  -7   3  -1   63.49    6.40
  -7  -3   1   64.89    6.20
  -7  -3   1   67.09    6.70
   7  -3  -1   44.90    7.00
   7   3   1   68.19    7.50
  -7   3  -1   57.19    7.30
   8   3  -1    3.60    2.40
  -8  -3  -1    5.20    1.80
   8  -3   1    4.70    2.60
  -8  -3  -1   10.40    2.50
  -8  -3  -1    4.10    2.20
  -8   3   1    5.10    2.10
  -8   3   1    7.40    3.20
  -8  -3   1    2.90    1.60
  -8  -3   1    6.70    1.80
   8   3   1    5.50    2.40
  -8   3  -1    5.20    2.70
  -8   3  -1    3.10    2.00
   8  -3  -1    3.30    2.40
  -8  -3   1    8.80    2.20
  -9  -3  -1   19.30    2.30
   9   3  -1   25.60    2.60
  -9   3   1   31.10    4.30
  -9  -3   1   26.60    2.70
  -9   3  -1   21.70    2.80
   9   3   1   20.30    2.20
  -9   3  -1   24.10    3.60
  -9  -3   1   20.00    2.50
   0   4   1  404.46   23.80
   0  -4  -1  411.56   23.80
   0  -4  -1  397.06   21.00
   0   4   1  408.56   20.90
   0  -4   1  412.96   22.70
   0   4  -1  392.16   20.70
   0   4  -1  414.86   22.80
   1   4  -1  240.28   14.90
   1  -4   1  272.97   19.50
  -1   4   1  268.47   16.90
  -1  -4  -1  226.28   17.30
   1  -4   1  256.17   12.90
  -1   4   1  244.68   13.10
  -1   4  -1  256.37   16.00
   1   4   1  229.78   16.90
  -1   4  -1  240.58   12.80
  -1  -4   1  242.48   14.90
   1  -4  -1  263.37   16.70
   1  -4  -1  271.17   13.30
  -1  -4   1  256.87   13.30
   1   4   1  234.28   13.50
   2   4  -1   55.59    6.50
   2   4  -1   66.09    5.10
  -2   4   1   57.29    8.10
   2  -4  -1   68.99    8.00
  -2  -4   1   71.79    4.50
   2  -4  -1   70.69    4.30
  -2   4  -1   67.79    8.60
   2   4   1   69.99    5.10
   2   4   1   65.19    7.90
  -2  -4   1   63.89    6.60
  -3   4   1  100.89   11.90
  -3  -4  -1   90.99   11.70
  -3   4   1   93.89    6.40
  -3   4   1  108.89    5.20
  -3   4  -1  104.89   11.70
   3  -4  -1  101.49    6.00
  -3  -4   1   95.99    6.10
  -3  -4   1   82.69   10.00
  -3   4  -1   99.49    6.50
   3   4   1   89.99   14.40
  -4   4   1  108.39    7.00
   4  -4   1  112.19    7.40
   4   4  -1  113.29    8.60
   4  -4   1  123.19    8.40
  -4   4   1  113.69    7.80
  -4  -4  -1  101.09    7.90
   4  -4  -1  123.39    7.70
  -4   4  -1  111.29    8.30
   4   4   1  106.59    7.90
  -4  -4   1  103.99    7.50
  -4   4  -1  106.29    6.90
   4   4   1  105.39    7.10
  -5   4   1   14.50    2.90
   5  -4   1   16.60    3.10
  -5  -4  -1   23.70    3.40
  -5   4   1   20.60    3.60
   5   4  -1   12.20    3.50
  -5  -4  -1   15.70    2.90
   5  -4   1   27.80    4.20
  -5   4   1   19.40    3.20
   5   4  -1   14.30    2.60
   5   4   1   28.20    5.30
  -5  -4   1   14.00    2.90
  -5  -4   1   20.30    3.10
  -5   4  -1   22.70    3.20
   5  -4  -1   21.30    3.80
  -5   4  -1   23.60    3.60
  -5   4  -1   21.20    3.90
   5   4   1   16.80    2.90
  -5  -4   1   12.10    2.80
  -6   4   1    3.80    2.60
  -6   4   1    2.40    1.70
  -6  -4  -1    3.50    2.10
   6   4  -1    2.10    2.30
   6  -4   1    0.10    2.50
  -6   4   1   -2.80    1.70
  -6   4  -1    1.80    2.40
  -6  -4   1    4.20    2.00
  -6   4  -1    3.10    1.80
  -6  -4   1    3.10    2.10
  -6  -4   1    6.00    4.00
   6  -4  -1    3.90    2.60
   6   4   1    1.70    2.40
  -6   4  -1   -1.10    2.10
  -7  -4  -1   11.50    2.80
  -7  -4  -1   13.20    3.00
   7   4  -1   13.10    3.60
  -7   4   1   25.20    4.40
   7  -4   1   11.30    3.40
  -7   4   1   18.60    3.80
  -7  -4   1   12.80    3.10
  -7  -4   1   11.60    2.90
  -7   4  -1   17.00    3.20
   7   4   1   10.80    3.40
  -7   4  -1   21.10    4.00
   7  -4  -1   12.70    4.10
  -8  -4  -1    0.20    1.40
  -8  -4  -1    1.30    1.50
   8  -4   1    0.40    2.10
   8   4  -1    2.40    2.10
  -8   4   1    0.30    2.30
  -8   4   1   -0.60    1.70
  -8   4  -1    0.30    2.20
  -8  -4   1   -0.10    1.30
  -8   4  -1    0.60    1.60
   8   4   1   -0.10    1.90
  -8  -4   1    0.50    1.50
  -9  -4  -1    3.20    0.70
   9   4  -1    2.40    1.50
  -9   4   1    0.20    1.00
  -9  -4  -1    1.70    1.10
  -9   4   1    3.30    2.10
   9   4   1    1.90    1.10
  -9  -4   1    1.10    1.20
  -9   4  -1    0.80    2.20
  -9   4  -1    0.70    1.20
   0  -5   1  118.49    9.40
   0  -5  -1  127.49   10.90
   0   5   1  131.49   10.90
   0   5  -1  128.09    9.80
   0   5  -1  119.39    7.40
   0   5   1  122.99    7.40
   1   5  -1   30.30    3.30
  -1   5   1   33.40    6.40
  -1   5   1   33.70    2.90
   1  -5   1   27.30    5.50
  -1  -5  -1   28.30    5.50
   1   5  -1   26.20    4.70
   1   5   1   32.90    5.70
  -1   5  -1   34.40    2.60
  -1  -5   1   30.00    5.60
   1   5   1   31.80    3.40
   1  -5  -1   25.40    5.60
   1  -5  -1   34.90    3.10
  -1   5  -1   26.90    5.30
   2   5  -1   73.09    8.00
  -2  -5  -1   77.39    9.90
  -2   5   1   65.39    9.70
   2   5  -1   71.79    5.80
   2  -5  -1   87.69   11.00
  -2  -5   1   81.89    8.10
   2   5   1   76.89    6.00
  -2   5  -1   88.49    9.50
   2  -5  -1   80.69    5.10
   2   5   1   90.29    9.40
   3   5  -1    7.90    2.50
  -3   5   1    9.20    2.10
   3  -5   1    8.60    2.50
  -3  -5  -1   10.40    4.50
   3  -5   1    4.10    1.90
  -3   5   1   13.80    2.30
   3  -5   1    6.10    2.40
  -3   5  -1   10.50    2.20
  -3   5  -1    8.50    2.40
  -3  -5   1   11.80    3.80
   3  -5  -1   12.30    3.00
   3   5   1   10.40    2.70
   3  -5  -1   10.10    1.90
   3  -5  -1   14.20    2.70
   4   5  -1   62.39    6.30
   4  -5   1   62.09    5.00
   4  -5   1   61.79    5.60
   4  -5   1   66.89    5.50
  -4  -5  -1   66.09    5.90
  -4   5   1   67.89    5.20
  -4   5   1   55.49    5.70
  -4   5   1   69.39    5.60
   4  -5   1   68.29    5.50
  -4   5  -1   84.49    6.30
  -4   5  -1   67.79    5.20
   4  -5  -1   66.39    5.70
   4   5   1   60.79    6.30
   4  -5  -1   66.49    5.60
  -4  -5   1   60.49    6.30
  -5   5   1   19.80    3.60
  -5   5   1   15.50    2.60
  -5   5   1   12.30    3.40
  -5  -5  -1   19.90    3.50
   5   5  -1   15.30    2.90
   5  -5   1   19.50    3.50
   5  -5   1   13.50    3.00
  -5   5  -1   17.40    2.80
   5   5   1   16.80    3.00
  -5   5  -1   14.60    3.40
  -5  -5   1   17.70    3.30
  -5   5  -1   19.00    3.40
   5  -5  -1   14.00    3.50
   6  -5   1    9.90    3.30
  -6   5   1   11.30    2.40
  -6   5   1    4.90    2.80
  -6  -5  -1    7.40    2.60
  -6   5   1    6.80    2.70
   6   5  -1   11.80    2.80
  -6  -5  -1    9.90    2.40
  -6  -5   1    7.80    2.20
   6  -5  -1    9.10    3.30
  -6   5  -1    5.60    2.50
  -6   5  -1    9.00    2.30
  -6  -5   1    8.80    2.70
   6   5   1    9.30    2.80
  -6   5  -1   19.40    3.60
  -7   5   1   64.79    6.80
  -7  -5  -1   49.60    5.10
  -7   5   1   58.19    5.80
   7   5  -1   62.69    5.60
  -7  -5  -1   46.30    4.70
   7  -5   1   48.30    5.50
  -7   5  -1   68.89    6.70
  -7   5  -1   49.40    5.40
  -7  -5   1   58.29    4.50
  -7   5  -1   54.29    4.80
   7   5   1   55.19    5.60
  -7  -5   1   58.79    5.00
   8   5  -1    6.70    2.60
  -8  -5  -1    6.50    1.40
  -8   5   1    5.40    1.70
  -8   5   1    4.40    2.40
  -8  -5  -1    5.50    1.60
  -8   5  -1    6.70    2.00
  -8  -5   1    4.50    1.20
   8   5   1    4.60    2.70
  -8  -5   1    6.50    1.90
  -8   5  -1    7.80    3.00
  -8  -5   1    4.80    1.60
   0  -6   1  132.39   11.70
   0   6  -1  148.99   11.50
   0   6  -1  135.89    8.20
   0  -6  -1  145.09    9.50
   0  -6   1  133.39    8.60
   0  -6   1  141.39    9.10
   0  -6  -1  129.39   16.10
   0   6   1  133.99    8.30
   0  -6  -1  138.69    8.80
   1  -6   1   61.99    5.80
  -1  -6  -1   51.79    5.00
   1   6  -1   56.39    4.70
   1  -6   1   62.99    5.00
   1   6  -1   56.29   10.60
  -1  -6  -1   53.99    6.20
  -1  -6   1   49.40    5.50
   1   6   1   55.69    4.80
  -1  -6   1   47.50    4.90
   1  -6  -1   57.69    5.60
   1  -6  -1   50.59    4.80
  -2  -6  -1   45.40    5.30
   2  -6   1   46.90    4.60
   2  -6   1   43.20    4.60
  -2   6   1   48.50    4.20
  -2  -6  -1   37.10    5.40
   2   6  -1   38.60    4.40
   2   6   1   34.70    4.20
   2  -6  -1   44.30    4.20
   2  -6  -1   46.40    5.00
  -2  -6   1   39.10    4.80
  -2  -6   1   39.70    5.40
  -3   6   1   44.50    4.20
  -3   6   1   42.70    5.50
   3  -6   1   44.00    4.90
   3  -6   1   46.00    4.50
  -3  -6  -1   50.69    5.70
   3   6  -1   46.40    5.20
   3  -6   1   44.10    4.00
  -3  -6  -1   55.09    6.90
  -3   6  -1   49.30    4.30
   3  -6  -1   53.59    5.00
  -3   6  -1   37.90    4.10
  -3  -6   1   42.80    5.80
  -3  -6   1   40.20    6.00
   3   6   1   36.50    5.00
   3  -6  -1   43.60    4.60
  -4   6   1   13.00    2.80
  -4   6   1   10.30    2.30
   4  -6   1   13.70    3.20
  -4  -6  -1   13.10    3.60
   4  -6   1    6.30    2.70
   4  -6   1   11.00    2.10
   4  -6  -1   19.10    3.30
  -4   6  -1   16.10    2.90
  -4   6  -1   15.30    2.50
   4  -6  -1   10.60    2.90
  -4  -6   1    5.00    4.20
  -5  -6  -1   50.79    5.20
   5   6  -1   53.19    4.90
  -5   6   1   42.50    5.20
   5  -6   1   38.40    4.70
  -5   6   1   51.99    5.50
  -5   6   1   49.30    4.80
  -5   6  -1   55.09    4.90
  -5  -6   1   51.29    5.20
   5  -6  -1   34.80    4.70
  -5  -6   1   50.49    5.20
  -5  -6   1   49.80    4.10
   5   6   1   49.80    5.00
  -5   6  -1   49.00    5.60
  -6   6   1   -1.10    2.40
   6   6  -1   -1.30    2.40
  -6  -6  -1    5.90    2.60
  -6  -6  -1    2.60    1.80
  -6   6   1    4.20    2.70
  -6   6  -1    5.60    2.60
  -6   6  -1    3.70    2.00
  -6  -6   1    2.60    2.00
   6   6   1    4.30    2.40
  -7  -6  -1    4.00    1.40
  -7   6   1    0.90    1.70
  -7  -6  -1    2.80    1.70
  -7   6   1    4.00    2.20
   7   6  -1    4.20    2.20
   7   6   1    1.80    2.10
  -7   6  -1    4.00    2.40
  -7  -6   1    2.80    1.80
  -7  -6   1    0.80    1.70
  -7  -6   1    0.80    1.50
  -8  -6  -1    2.10    1.50
   8   6  -1    0.20    1.50
  -8   6   1    0.90    1.60
  -8  -6   1    0.00    1.40
   8   6   1    0.40    1.50
  -8  -6   1    0.40    1.20
  -8   6  -1    7.40    3.50
   0  -7   1   -0.10    2.30
   0  -7  -1   -1.80    4.10
   0  -7   1  -11.20    4.80
   0  -7   1    1.20    3.80
   0  -7  -1    2.10    2.40
   0   7   1   -0.30    1.20
   0   7  -1   -0.60    1.10
  -1   7   1   31.80    3.60
   1  -7   1   31.20    4.90
   1   7  -1   26.70    3.90
  -1  -7  -1   28.40    4.50
   1  -7   1   30.30    4.10
  -1  -7  -1   27.80    5.90
   1  -7  -1   34.20    4.20
   1   7   1   27.00    3.80
  -1  -7   1   29.40    4.20
  -1  -7   1   25.50    5.70
   1  -7  -1   24.70    5.00
  -2  -7  -1   -1.40    3.90
   2  -7   1    8.80    2.70
  -2   7   1    6.00    1.90
   2  -7   1   -0.70    3.00
  -2  -7  -1   -1.60    4.70
   2   7  -1    4.20    2.40
   2  -7   1    2.90    2.10
   2   7   1    2.20    2.30
  -2  -7   1    5.90    6.20
  -2   7  -1    7.50    2.00
   2  -7  -1   -1.00    3.20
  -2  -7   1    2.10    4.40
   2  -7  -1    4.00    2.40
  -3  -7  -1    7.10    3.30
   3  -7   1    7.40    1.90
  -3   7   1    5.50    1.90
  -3  -7  -1   10.10    4.60
   3  -7   1    6.40    2.60
   3  -7   1    2.10    3.20
  -3  -7  -1   -1.30    3.80
  -3  -7   1    4.20    6.30
  -3  -7   1    0.20    6.80
   3  -7  -1    4.00    3.20
   3  -7  -1    5.40    2.40
  -3  -7   1    6.10    2.70
  -3   7  -1    7.10    2.10
   4  -7   1   43.10    4.70
  -4   7   1   44.60    4.70
  -4  -7  -1   29.20    5.60
   4  -7   1   42.60    5.00
  -4  -7   1   37.10    4.60
  -4   7  -1   47.10    4.60
   4  -7  -1   37.30    4.80
  -4  -7   1   41.70    6.80
   4  -7  -1   37.90    4.20
  -4  -7   1   37.30    3.30
  -4  -7   1   40.40    4.80
   5  -7   1   11.80    2.80
  -5   7   1   13.10    4.10
   5  -7   1    8.60    2.80
   5   7  -1   13.20    2.90
  -5  -7  -1   10.30    3.30
  -5  -7  -1   11.40    2.20
  -5  -7   1   10.00    1.80
  -5   7  -1   13.20    3.10
  -5  -7   1    6.50    3.10
   5  -7  -1    5.00    2.50
  -5  -7   1   18.70    3.10
   5   7   1   10.30    3.20
  -6  -7  -1    6.20    2.00
   6   7  -1    7.60    2.40
  -6  -7  -1    5.20    1.50
  -6   7   1    3.40    3.00
  -6  -7  -1    3.00    2.20
   6   7   1    6.60    2.40
  -6  -7   1    9.30    2.70
  -6   7  -1    7.80    2.10
  -6  -7   1    8.30    2.10
  -6   7  -1    9.00    2.60
  -7  -7  -1    9.10    2.00
  -7  -7  -1   13.40    2.20
   7   7  -1   15.10    2.50
   7   7   1   16.10    3.00
  -7  -7   1   11.70    2.20
  -7  -7   1   14.30    2.70
   8   7  -1    2.20    1.20
  -8  -7  -1    0.90    1.00
  -8  -7   1    0.70    1.20
   8   7   1    1.60    1.20
  -8  -7   1    2.50    1.00
   0  -8   1   24.00    8.20
   0  -8  -1   13.00    7.50
   0  -8   1   17.60    4.40
   0  -8  -1   20.60    4.30
   1   8  -1    9.20    4.60
  -1  -8  -1   14.80    5.30
   1  -8   1   11.60    6.60
  -1  -8   1   10.50   12.00
   1   8   1   10.20    3.80
   1  -8  -1   11.20    5.60
  -1  -8   1   16.30    3.20
   1  -8  -1   17.30    4.10
  -1   8  -1   10.40    2.20
  -1  -8   1   13.70    4.60
   2  -8   1    3.60    2.60
  -2  -8  -1    4.20    6.50
   2  -8   1    1.30    5.70
  -2  -8  -1   -3.10    6.00
   2  -8  -1   -4.80    3.80
  -2  -8   1    1.50    2.00
  -2  -8   1   -0.50    6.60
  -2  -8   1    3.80    8.80
   2  -8  -1    0.30    2.40
  -3  -8  -1   51.09    5.70
   3  -8   1   47.30    6.80
   3  -8   1   57.89    5.70
  -3  -8  -1   54.49    8.10
  -3   8   1   63.29    5.30
  -3  -8   1   39.20    7.10
   3  -8  -1   55.89    6.00
  -3   8  -1   57.79    5.10
  -3  -8   1   47.40    9.10
  -3  -8   1   56.99    5.50
  -4  -8  -1   16.50    3.40
  -4  -8  -1   16.10    5.00
   4  -8   1   13.50    3.20
   4  -8   1    8.20    3.20
  -4  -8   1   15.20    3.70
  -4   8  -1   16.30    3.70
  -4  -8   1   13.00    5.90
   4  -8  -1   11.80    3.20
   4  -8  -1    9.10    2.60
  -5  -8  -1   15.40    3.10
  -5  -8  -1    9.80    2.90
  -5  -8  -1    3.50    1.90
  -5  -8  -1    7.90    1.30
   5  -8   1    2.20    2.60
   5  -8   1    7.20    2.40
   5   8  -1   11.10    2.40
   5  -8  -1    5.90    2.20
  -5   8  -1   12.10    2.50
  -5  -8   1   13.70    2.70
  -5  -8   1    4.70    1.70
  -5  -8   1   10.20    2.70
   5   8   1   12.00    2.60
  -6  -8  -1   15.50    2.90
   6   8  -1   14.50    3.00
  -6  -8  -1   10.70    2.10
  -6  -8   1   11.90    2.60
   6   8   1   12.90    2.80
  -6  -8   1   12.70    2.30
   7   8  -1    4.20    1.60
  -7  -8  -1    4.70    1.50
  -7  -8   1    1.80    1.30
   7   8   1    3.60    1.60
  -7  -8   1    2.70    2.30
   0  -9  -1    1.70    5.30
   0  -9  -1   -0.90    8.70
   0  -9   1    4.70    4.70
   0  -9   1    5.90   10.00
   1  -9   1    8.20    8.70
  -1  -9  -1   19.90    7.00
  -1  -9  -1   10.90    9.00
  -1  -9  -1    9.10    2.60
   1  -9   1   15.20    4.50
   1  -9  -1   13.70    4.70
   1  -9  -1    2.30    7.60
  -1  -9   1    1.10   10.00
  -1  -9   1   13.70    6.90
  -1  -9   1   12.20    2.70
  -2  -9  -1    3.10    7.60
  -2  -9  -1    5.10    2.40
   2  -9   1    3.70    3.20
   2  -9   1    1.50    7.80
  -2  -9  -1    4.80    6.00
  -2  -9   1    9.60    9.30
   2  -9  -1    3.80    5.50
   2  -9  -1    2.20    3.50
  -2  -9   1    4.50    2.50
  -2  -9   1    1.10    8.10
   3  -9   1    3.50    6.10
  -3  -9  -1    3.40    2.30
  -3  -9  -1   -1.60    6.10
   3  -9   1    4.50    4.00
  -3  -9  -1    0.60    2.20
  -3  -9   1    7.40    8.10
  -3  -9   1    2.20    3.10
   3  -9  -1   -0.40    3.60
   3  -9  -1    6.90    3.10
  -4  -9  -1    3.60    2.80
   4  -9   1    6.80    2.50
   4   9  -1    6.80    2.10
   4  -9   1    3.10    4.20
  -4  -9   1    7.00    4.00
   4   9   1    2.90    1.80
  -4  -9   1    2.00    1.70
   4  -9  -1   -0.20    2.50
   4  -9  -1   -0.60    1.90
  -5  -9  -1    6.50    2.00
   5   9  -1    6.60    1.90
  -5  -9  -1    7.40    2.30
   5  -9   1    2.80    1.80
   5  -9  -1    3.30    1.40
  -5  -9   1    3.10    2.30
   5   9   1    8.10    2.60
  -5  -9   1    5.80    2.00
  -6  -9  -1   -0.30    1.30
   6   9  -1    2.50    1.50
   6   9   1   -0.30    1.40
  -6  -9   1    2.00    1.30
   0 -10   1    7.40   10.60
   0 -10   1    8.70    6.80
   0 -10  -1   -8.00    6.50
   0 -10  -1    5.80    7.90
  -1 -10  -1    0.00    7.00
   1 -10   1    4.80    9.60
   1 -10   1   -2.00    4.60
  -1 -10  -1    0.80    6.40
   1 -10  -1    2.00    7.20
  -1 -10   1    8.20    9.80
   1 -10  -1    3.40    5.90
  -1 -10   1   -1.50    8.00
   2 -10   1    3.10    8.20
  -2 -10  -1    1.70    6.70
  -2 -10  -1    1.20    1.80
   2 -10   1   -0.90    4.10
  -2 -10  -1    1.10    3.10
   2 -10  -1   -1.70    4.20
   2 -10  -1    3.80    6.10
  -2 -10   1    2.90    1.90
  -2 -10   1    6.80    7.80
  -2 -10   1    2.00    5.20
  -3 -10  -1    3.80    4.20
   3 -10   1    3.20    6.30
  -3 -10  -1    1.60    1.60
   3 -10   1   -0.80    3.20
   3 -10  -1   -3.10    3.90
  -3 -10   1    1.70    1.60
  -3 -10   1    3.80    5.30
   3 -10  -1    2.50    3.80
  -4 -10  -1    0.80    1.50
  -4 -10  -1   -0.10    2.00
   4 -10   1    3.70    3.20
   4  10  -1   -0.70    1.40
  -4 -10   1    0.30    3.20
   4  10   1    2.70    1.60
   4 -10  -1    1.60    1.80
  -4 -10   1    1.90    1.60
   5  10  -1    6.10    1.80
  -5 -10  -1    2.00    1.60
   5  10   1    6.90    1.50
  -5 -10   1    1.90    1.70
   0 -11  -1    1.50    3.50
   0 -11  -1   -0.40    5.30
   0 -11   1    0.50    6.50
   0 -11   1   -0.30    6.70
  -1 -11  -1    2.20    2.70
   1 -11   1    2.50    6.80
  -1 -11  -1    1.40    5.10
   1 -11   1    4.70    5.90
   1 -11  -1    3.80    6.40
  -1 -11   1    6.40    6.90
   1 -11  -1    4.30    4.30
   2 -11   1    4.10    4.70
   2 -11   1    8.70    6.80
  -2 -11  -1    2.10    3.90
  -2 -11   1    1.50    1.80
   2 -11  -1    0.70    3.90
   2 -11  -1    1.70    3.80
  -2 -11   1    1.80    6.80
  -3 -11  -1    1.20    1.30
  -3 -11  -1    1.00    1.50
   3  11  -1    4.70    1.60
   3 -11   1    3.60    3.20
   3 -11   1    2.60    2.70
   3  11   1    2.90    1.30
  -3 -11   1    1.40    1.30
  -3 -11   1    2.40    2.20
   3 -11  -1    0.50    1.50
  -4 -11  -1    1.40    1.10
   4 -11   1    1.10    1.00
  -4 -11  -1    0.00    1.10
   4  11  -1    1.70    1.20
  -4 -11   1    1.00    1.70
  -4 -11   1    0.60    1.00
   4  11   1   -0.50    1.10
   0 -12  -1    0.60    2.10
   0 -12   1    4.70    3.50
   0 -12   1    0.50    1.60
   0 -12  -1   -0.70    1.30
  -1 -12  -1   -0.70    1.50
   1 -12   1    0.20    1.80
   1 -12   1    0.30    3.20
   1 -12  -1   -2.70    1.40
   1 -12  -1   -0.20    1.20
  -1 -12   1    1.30    2.90
   2  12  -1    2.70    1.20
   2 -12   1    0.80    1.60
   2 -12   1   -1.70    2.00
  -2 -12  -1   -0.30    1.50
   2  12   1    0.50    0.90
  -2 -12   1   -0.80    1.50
   2 -12  -1    0.90    1.10
   0   0   2  225.38   12.00
   0   0  -2  233.18   11.40
   0   0  -2  221.48   12.00
  -1   0   2 1251.77   64.89
  -1   0  -2 1324.97   66.59
  -1   0  -2 1339.87   64.99
   1   0  -2 1320.47   66.19
   1   0   2 1352.46   64.99
   1   0   2 1350.86   66.79
  -1   0   2 1303.77   66.29
  -2   0   2  225.58   11.70
   2   0   2  236.68   11.90
   2   0   2  235.48   15.10
  -2   0  -2  214.08   14.60
  -2   0   2  238.28   14.40
  -3   0  -2   62.09    7.60
  -3   0   2   58.59    7.30
  -3   0   2   63.39    3.80
   3   0   2   70.39    4.80
  -3   0   2   55.99    6.80
  -4   0  -2   86.99   10.60
  -4   0   2   88.09   14.20
  -4   0  -2  108.39   11.40
  -4   0  -2  105.49    6.80
  -4   0   2  110.59    6.00
  -4   0   2  106.59    7.00
  -4   0   2  122.29   13.90
   4   0   2  105.39    6.70
  -5   0   2   46.30    3.20
   5   0   2   41.80    4.60
  -5   0  -2   38.40    4.30
   5   0  -2   49.30    4.60
   5   0  -2   46.30    5.10
   5   0   2   46.30    4.30
   5   0   2   44.00    4.50
  -5   0  -2   41.70    4.10
  -5   0   2   47.10    4.10
  -5   0   2   41.90    4.60
  -5   0  -2   36.50    3.70
  -6   0  -2    5.40    1.40
   6   0  -2    7.60    2.50
   6   0  -2    5.90    2.60
  -6   0  -2    5.50    2.70
   6   0   2   10.80    3.10
  -6   0   2   13.10    3.20
  -6   0   2    8.30    2.40
   6   0  -2    4.60    2.90
   6   0   2    5.70    2.50
   6   0   2    6.00    2.30
  -6   0  -2    6.90    2.50
   7   0  -2   59.19    6.00
  -7   0  -2   63.09    6.40
  -7   0  -2   61.19    5.70
   7   0  -2   62.69    5.80
  -7   0   2   53.29    5.20
  -7   0   2   60.29    6.30
   7   0   2   57.39    5.40
   7   0   2   61.79    5.90
   8   0  -2   23.70    3.90
   8   0   2   18.80    3.70
  -8   0  -2   24.50    3.50
   8   0   2   25.90    3.20
  -8   0   2   15.70    3.00
  -8   0   2   19.20    4.30
   8   0  -2   29.80    4.00
  -9   0   2    4.50    1.50
  -9   0  -2    4.70    1.70
  -9   0   2    8.10    2.00
   9   0   2    2.10    1.50
  -9   0   2    7.40    2.50
  -9   0  -2    9.10    2.80
   0   1  -2  310.17   16.00
   0   1   2  318.37   16.10
   0  -1  -2  302.07   17.40
   0  -1  -2  322.97   16.10
   0   1   2  355.76   17.80
   0  -1   2  318.37   15.90
   1  -1   2  464.95   25.10
  -1  -1  -2  563.74   25.70
   1   1   2  511.45   27.40
  -1   1  -2  525.55   27.10
   1   1   2  551.84   25.60
   1  -1  -2  501.65   27.20
  -1  -1   2  486.35   26.20
  -1  -1   2  487.75   25.40
  -2   1   2  222.58   14.00
   2  -1   2  222.18   10.60
  -2   1   2  203.88   10.50
  -2  -1  -2  195.08   13.60
  -2  -1   2  196.38   10.70
   2   1   2  211.28   11.10
  -2   1  -2  237.18   13.90
   2   1   2  193.28   15.10
  -2  -1   2  190.98   12.70
   2  -1  -2  211.08   13.60
  -2   1  -2  205.28   13.80
  -2  -1   2  195.98   13.00
  -3   1   2  238.58   12.30
   3  -1   2  245.88   12.60
  -3   1   2  249.48   17.30
  -3  -1  -2  241.28   16.90
  -3   1   2  237.68   17.00
  -3   1  -2  244.48   18.60
   3   1   2  261.47   17.90
  -3  -1   2  230.78   16.00
   3   1   2  211.68   14.20
  -3  -1   2  241.58   16.60
  -3   1  -2  243.78   16.80
  -3  -1   2  256.27   12.60
  -4   1   2   32.10    8.70
  -4   1   2   43.90    8.80
   4   1  -2   43.00    4.00
  -4  -1  -2   39.30    3.80
  -4  -1  -2   37.30    7.50
  -4   1   2   37.90    2.70
  -4  -1  -2   45.60    9.10
  -4   1   2   37.90    3.90
   4  -1   2   39.90    3.40
  -4  -1   2   42.60    8.60
   4   1   2   42.90    4.00
  -4   1  -2   38.70    3.80
  -4   1  -2   49.90    8.40
  -4  -1   2   40.30    4.10
  -4  -1   2   41.30    3.10
  -4   1  -2   53.39    9.30
   5   1  -2   34.40    3.80
  -5  -1  -2   27.90    3.00
  -5   1   2   33.40    3.80
  -5   1   2   39.00    4.30
   5  -1   2   34.40    4.00
  -5   1   2   29.00    2.80
   5  -1   2   38.40    3.70
   5  -1   2   23.30    3.50
  -5  -1  -2   29.50    4.00
   5   1  -2   36.30    4.10
  -5  -1  -2   30.60    3.60
   5  -1  -2   34.20    4.20
   5   1   2   33.40    3.80
   5  -1  -2   34.00    3.90
   5   1   2   41.80    4.70
   5  -1  -2   33.90    3.70
   5   1   2   37.90    4.70
  -5   1  -2   31.10    3.90
  -5  -1   2   39.30    3.00
  -5   1  -2   37.10    3.20
  -5  -1   2   37.50    3.50
  -5  -1   2   32.00    4.00
   6  -1   2   51.39    7.50
  -6  -1  -2   35.40    4.60
   6  -1   2   41.10    5.20
   6   1  -2   46.90    5.10
  -6  -1  -2   43.80    5.00
  -6   1   2   44.90    4.60
  -6  -1  -2   41.40    3.80
   6   1  -2   41.50    5.20
  -6   1   2   45.20    5.50
   6   1  -2   32.70    5.00
   6  -1  -2   34.90    4.90
  -6   1  -2   41.40    4.30
   6   1   2   34.20    5.30
   6   1   2   40.90    4.60
  -6  -1   2   42.90    5.00
   6  -1  -2   45.50    4.80
  -6  -1   2   37.10    4.10
  -6   1  -2   56.39    7.80
  -6  -1   2   37.60    4.20
   6   1   2   50.99    5.30
   6  -1  -2   44.20    5.50
  -6   1  -2   49.50    5.00
   7   1  -2   11.60    3.20
   7   1  -2   18.80    3.70
  -7  -1  -2   16.30    3.80
  -7   1   2    9.20    2.90
  -7  -1  -2   16.40    3.40
   7  -1   2   10.10    2.50
  -7   1   2   11.70    3.00
   7  -1   2    5.70    3.00
  -7   1  -2   10.60    1.80
  -7  -1   2   10.70    3.00
   7  -1  -2    9.80    3.40
  -7  -1   2   11.80    2.70
   7   1   2   13.50    3.40
  -7   1  -2   16.10    3.30
  -7   1  -2   13.90    3.30
   7   1   2   12.30    3.00
  -8  -1  -2    4.80    3.30
   8  -1   2    1.10    2.10
  -8  -1  -2    0.50    1.90
   8   1  -2    2.90    2.30
  -8   1   2    4.20    2.40
  -8   1   2    1.70    3.50
  -8  -1   2    5.00    3.20
   8   1   2   -2.60    1.80
  -8  -1   2   -0.20    1.70
   8  -1  -2    1.20    2.40
  -8   1  -2    2.90    2.40
   8   1   2    0.80    2.10
   8  -1  -2    3.70    1.90
  -8   1  -2    0.90    2.00
   9   1  -2    8.30    1.50
  -9  -1  -2    7.20    1.90
  -9   1   2   13.40    3.10
  -9   1   2    6.90    2.00
  -9   1   2    7.30    1.60
  -9  -1  -2    8.70    2.10
   9  -1   2    4.90    1.80
  -9   1  -2    7.40    1.90
  -9  -1   2    8.70    1.80
   9   1   2    3.60    1.50
  -9   1  -2    9.60    3.00
  -9  -1   2    5.30    1.50
   0   2  -2 9221.88  469.85
   0   2   2 9999.00  471.75
   0  -2  -2 9529.95  471.65
   1   2  -2 4543.75  233.28
  -1  -2  -2 4664.73  235.08
  -1  -2  -2 4911.21  232.88
  -1   2   2 4889.01  235.38
   1   2   2 4664.13  235.08
   1  -2  -2 5010.90  235.28
  -1   2  -2 4814.62  234.48
   1  -2  -2 4889.21  232.68
  -1  -2   2 4274.67  233.18
  -2   2   2   52.59    6.10
  -2  -2  -2   46.40    6.70
   2   2  -2   52.59    4.00
   2  -2  -2   61.19    6.40
   2  -2  -2   53.89    3.60
  -2   2  -2   51.39    5.80
  -2  -2   2   50.29    5.20
   2   2   2   50.09    6.20
   2   2   2   58.79    4.10
  -2   2  -2   48.90    5.90
  -2  -2   2   54.29    3.60
  -2  -2   2   50.29    4.90
  -3   2   2   36.90    3.60
  -3   2   2   37.10    2.40
  -3  -2  -2   42.00    6.60
  -3   2   2   47.60    7.70
   3  -2   2   42.80    2.60
   3   2  -2   42.80    3.80
  -3   2  -2   34.60    6.50
  -3  -2   2   35.00    5.60
   3   2   2   37.00    3.70
  -3   2  -2   43.50    4.10
  -3  -2   2   41.00    5.40
   3   2   2   43.40   11.90
  -3   2  -2   35.90    6.40
  -3  -2   2   36.00    3.40
   4  -2   2  224.88   10.70
  -4  -2  -2  175.58   16.80
  -4   2   2  198.48   11.50
  -4   2   2  203.68   18.00
  -4   2   2  201.98   10.10
  -4   2   2  186.08   17.80
  -4  -2  -2  184.48   11.20
   4   2   2  197.48   11.80
  -4   2  -2  188.28   11.40
  -4  -2   2  214.68   10.80
  -4   2  -2  216.08   18.30
  -4  -2   2  180.88   16.20
  -4   2  -2  185.38   17.10
  -4  -2   2  198.38   11.40
   5  -2   2    8.70    2.10
  -5  -2  -2    7.90    2.20
  -5   2   2    7.40    2.30
  -5   2   2    8.20    1.70
   5   2  -2    4.40    2.10
  -5   2   2   10.00    2.50
   5  -2   2    9.90    2.80
  -5   2  -2    9.80    1.90
   5  -2  -2    9.70    2.70
   5   2   2    7.60    2.20
   5   2   2    3.90    1.90
  -5   2  -2    6.10    2.80
  -5  -2   2    6.90    1.70
  -5  -2   2    6.80    1.90
   5  -2  -2    7.30    2.20
  -5   2  -2    5.90    1.80
   5  -2  -2   16.10    3.10
  -5  -2   2    6.30    1.70
  -5  -2   2    5.70    1.90
  -6   2   2   19.40    2.60
  -6   2   2   21.70    3.60
  -6  -2  -2   23.60    3.50
   6  -2   2   18.80    2.80
   6   2  -2   22.20    3.50
  -6   2   2   25.40    4.20
  -6  -2  -2   27.80    4.10
   6  -2   2   21.90    3.90
  -6  -2   2   21.00    3.70
  -6  -2   2   22.70    3.30
  -6   2  -2   27.10    4.30
   6   2   2   15.50    4.10
   6   2   2   25.40    4.20
   6  -2  -2   24.90    3.50
  -6  -2   2   24.90    3.50
   6  -2  -2   27.60    4.20
  -6   2  -2   20.70    3.60
   6   2   2   18.00    4.30
  -7  -2  -2   19.40    3.40
  -7   2   2   21.00    3.60
  -7   2   2   13.70    3.10
  -7  -2  -2   24.40    3.60
   7   2  -2   25.20    4.00
   7  -2   2   20.30    4.00
  -7  -2  -2   27.30    3.30
  -7   2  -2   22.40    4.00
   7   2   2   19.80    3.50
  -7  -2   2   31.50    3.60
   7  -2  -2   24.30    3.30
  -7  -2   2   22.50    3.30
   7  -2  -2   14.30    3.80
  -7  -2   2   18.90    3.50
  -7   2  -2   23.90    2.90
  -7   2  -2   31.50    4.30
   7   2   2   29.00    4.60
  -8  -2  -2   28.80    3.70
  -8   2   2   20.20    3.20
  -8  -2  -2   30.90    4.30
   8  -2   2   14.70    3.20
   8   2  -2   24.10    3.60
   8  -2  -2   24.20    4.00
  -8   2  -2   24.70    3.70
  -8  -2   2   29.20    3.70
   8   2   2   25.90    4.10
   8   2   2   19.40    4.50
  -8  -2   2   26.40    4.10
  -9   2   2   29.10    4.10
   9   2  -2   23.30    2.70
  -9   2   2   27.00    3.00
  -9  -2  -2   20.30    3.20
  -9  -2  -2   25.20    2.90
  -9   2  -2   25.90    4.10
  -9  -2   2   22.40    2.60
  -9   2  -2   26.50    3.00
  -9  -2   2   22.00    2.90
   0   3  -2  141.39    8.00
   0  -3  -2  154.18    8.40
   0  -3   2  154.88    8.90
   0   3   2  154.98   10.70
   0  -3   2  155.78    8.00
   0   3  -2  150.58    8.90
   0   3   2  149.39    8.30
   1   3  -2  495.35   26.00
  -1  -3  -2  490.85   25.50
   1   3  -2  485.75   25.30
   1  -3   2  515.55   27.80
  -1   3   2  537.75   28.60
  -1   3   2  480.95   25.10
  -1  -3   2  463.05   25.80
   1  -3  -2  491.95   29.10
  -1  -3   2  493.25   25.00
   1   3   2  488.45   25.40
  -1   3  -2  507.25   27.20
   1   3   2  497.65   28.10
   1  -3  -2  525.85   25.20
  -2  -3  -2  447.96   27.60
   2   3  -2  429.76   22.10
   2   3   2  411.46   25.60
  -2   3  -2  419.36   25.30
  -2   3  -2  411.56   25.10
   2  -3  -2  449.86   25.80
   2  -3  -2  417.26   21.70
  -2  -3   2  412.96   22.20
  -2  -3   2  423.86   23.80
  -3   3   2  188.78   16.00
  -3   3   2  200.48   10.10
   3   3  -2  203.88   11.50
  -3   3   2  185.68   11.10
  -3  -3  -2  183.48   15.30
  -3  -3   2  171.18   13.30
   3  -3  -2  213.88   16.40
   3  -3  -2  171.18   10.90
  -3   3  -2  193.68   15.60
  -3  -3   2  207.58   14.50
  -3   3  -2  208.68   16.10
   3   3   2  206.58   16.20
  -3   3  -2  216.08   11.60
  -3  -3   2  207.68   10.80
   3   3   2  201.98   11.50
  -4   3   2  119.89    7.90
  -4   3   2  133.49   15.40
  -4   3   2  111.59    7.20
   4  -3   2  122.19    7.90
  -4  -3  -2  112.19    7.40
   4  -3   2  122.49    7.40
  -4  -3   2  121.09    7.20
   4   3   2  117.19    8.30
  -4  -3   2  117.09    7.60
  -4   3  -2  119.09    7.70
  -4   3  -2  114.39    7.30
   4  -3  -2  128.39    8.00
  -4  -3   2  125.79    7.20
   5   3  -2  117.19    8.90
  -5  -3  -2  109.59    7.80
  -5   3   2  123.99    8.40
   5  -3   2  124.39    8.30
  -5   3   2  124.29    8.50
   5  -3   2  130.59    7.80
   5   3  -2  114.09    7.80
  -5   3   2  107.59    7.20
   5   3   2  116.89    7.80
  -5  -3   2  118.09    8.10
  -5   3  -2  115.89    8.20
   5   3   2  115.69    8.80
  -5  -3   2  135.19    7.70
  -5   3  -2  121.09    8.40
   5  -3  -2  124.19    7.80
   5  -3  -2  118.19    8.50
  -5   3  -2  113.79    7.40
   5  -3  -2  134.29    7.60
  -5  -3   2  116.69    7.70
   6   3  -2   52.09    5.10
  -6   3   2   37.30    6.20
   6  -3   2   37.40    4.40
  -6  -3  -2   46.70    5.20
   6  -3   2   45.60    5.30
  -6   3   2   44.20    5.00
  -6  -3  -2   48.20    4.60
  -6   3   2   44.40    4.10
   6   3   2   38.20    5.80
  -6   3  -2   50.49    5.50
  -6   3  -2   52.69    7.30
  -6  -3   2   51.49    5.50
  -6   3  -2   46.60    4.40
  -6  -3   2   52.69    5.00
   6  -3  -2   57.39    5.70
   6   3   2   53.59    5.20
  -6  -3   2   52.69    4.70
  -7   3   2   68.29    6.40
   7   3  -2   46.10    7.10
  -7   3   2   61.49    6.90
  -7  -3  -2   57.19    5.80
  -7  -3  -2   54.69    5.00
   7  -3  -2   60.19    8.20
  -7  -3   2   50.49    5.10
  -7   3  -2   53.69    5.20
  -7   3  -2   55.49    6.30
  -7   3  -2   57.19    5.90
  -7  -3   2   70.29    6.20
  -7  -3   2   54.39    6.40
   8  -3   2    4.80    2.40
  -8   3   2    4.30    2.20
  -8  -3  -2    8.10    2.30
   8   3  -2    3.70    2.40
  -8   3   2    4.40    2.80
  -8  -3  -2    4.40    2.00
   8   3   2    4.10    2.20
  -8  -3   2    6.40    2.30
  -8   3  -2    2.90    2.20
  -8   3  -2    5.70    2.10
  -8  -3   2    3.90    1.80
  -8  -3   2    6.80    1.90
  -9   3   2    0.00    1.10
   9   3  -2    1.40    1.90
  -9  -3  -2    0.40    1.00
  -9   3   2    0.50    1.90
  -9  -3   2    1.00    1.40
  -9   3  -2    2.00    1.20
  -9  -3   2    1.40    0.90
  -9   3  -2    1.00    1.90
   0   4   2  445.26   23.20
   0   4  -2  459.15   24.80
   0  -4  -2  454.05   23.40
   0   4   2  426.26   26.40
   0  -4   2  454.35   22.80
   0   4  -2  440.36   22.90
   0  -4  -2  475.95   26.80
   0  -4   2  457.45   24.20
  -1   4   2  512.75   29.10
   1  -4   2  501.45   27.20
   1   4  -2  480.85   25.90
  -1   4   2  482.05   24.70
  -1  -4  -2  457.15   28.20
  -1  -4   2  491.95   24.70
  -1   4  -2  467.05   24.20
   1   4   2  460.85   28.70
  -1  -4   2  454.95   25.70
  -1   4  -2  505.15   27.30
   1  -4  -2  537.15   29.10
   1   4   2  472.45   25.10
   1  -4  -2  502.95   25.00
   2   4  -2  157.38    9.60
  -2  -4  -2  150.78   12.80
  -2   4   2  165.58   13.70
   2   4  -2  147.59   11.00
  -2   4  -2  166.58   12.80
  -2   4  -2  153.08   15.00
   2   4   2  156.08    9.50
   2  -4  -2  172.28    9.10
   2  -4  -2  170.98   13.60
  -2  -4   2  169.48    9.00
  -2  -4   2  145.99   10.80
   2   4   2  177.68   14.90
  -3  -4  -2   25.80    5.90
  -3   4   2   41.10    3.90
  -3   4   2   42.70    2.60
   3   4  -2   44.40    4.70
  -3  -4   2   39.50    3.50
   3   4   2   44.90    4.30
  -3  -4   2   33.50    6.10
  -3   4  -2   44.40    8.40
   3   4   2   48.50    8.40
   3  -4  -2   29.30    6.90
   3  -4  -2   47.90    3.70
  -3   4  -2   40.50    3.80
   4  -4   2   37.80    4.40
   4  -4   2   32.10    3.20
  -4   4   2   40.60    6.10
  -4  -4  -2   34.10    4.00
   4  -4   2   28.90    3.60
  -4   4   2   29.10    4.70
   4   4  -2   43.70    5.70
  -4   4   2   29.00    3.40
  -4  -4   2   36.70    4.60
   4   4   2   32.30    4.20
  -4   4  -2   32.70    4.70
  -4  -4   2   30.00    3.20
  -4  -4   2   25.20    3.50
   4  -4  -2   30.10    3.90
  -4   4  -2   30.10    3.50
   4   4   2   33.90    4.40
   5  -4   2   56.89    6.40
  -5   4   2   57.19    5.80
   5   4  -2   54.49    6.40
  -5   4   2   68.29    5.40
  -5  -4  -2   55.09    5.20
   5  -4   2   57.99    5.20
   5   4  -2   54.39    5.00
  -5  -4  -2   62.59    5.30
   5  -4  -2   64.79    5.90
  -5  -4   2   60.89    6.10
  -5  -4   2   62.09    5.20
   5   4   2   65.69    6.50
   5   4   2   59.49    5.20
  -5  -4   2   63.19    5.20
  -5   4  -2   67.79    5.70
  -5  -4   2   58.89    4.70
   5  -4  -2   62.79    6.30
  -5   4  -2   53.19    6.20
  -6   4   2  131.29    8.90
  -6   4   2  120.79    8.50
  -6  -4  -2  121.09    8.20
   6   4  -2  115.09    8.30
   6  -4   2  100.09    8.50
   6  -4   2  122.59    8.80
  -6   4   2  112.19    9.80
  -6   4  -2  124.39    7.80
  -6  -4   2  114.39    8.50
  -6  -4   2  120.99    8.30
  -6   4  -2  124.89    8.90
  -6  -4   2  124.69    7.90
   6  -4  -2  124.69    9.10
  -6   4  -2  119.49   10.00
   6   4   2  119.39    8.30
  -7   4   2  125.29    8.70
   7  -4   2   91.59    9.90
  -7   4   2  124.19    8.90
  -7  -4  -2  111.09    8.00
  -7  -4  -2  108.29   10.10
  -7  -4   2  117.09    8.00
  -7   4  -2  124.19    8.90
  -7   4  -2  113.79    8.70
   7   4   2  127.69   10.40
  -8   4   2    9.60    3.20
  -8  -4  -2    6.90    1.90
  -8  -4  -2    4.30    1.70
  -8   4   2    4.40    2.20
   8  -4   2    4.90    2.40
   8   4  -2    6.10    2.30
  -8  -4   2    6.40    1.80
  -8   4  -2    8.40    2.40
   8   4   2    6.50    2.20
  -8  -4   2    4.90    1.80
  -8   4  -2   13.30    3.10
  -9   4   2    3.00    1.70
  -9  -4  -2    2.60    1.00
   9   4  -2    1.10    2.00
  -9   4   2    2.40    0.90
  -9  -4  -2    4.10    1.10
  -9  -4   2    3.30    1.60
  -9   4  -2    7.30    2.10
  -9   4  -2    1.80    1.30
   0  -5  -2    9.40    3.90
   0   5  -2    4.60    2.40
   0   5  -2   11.40    1.80
   0   5   2    8.30    1.80
   0   5   2    9.00    4.00
   0  -5   2   13.30    2.70
  -1   5   2  194.08   10.40
  -1  -5  -2  206.38   16.40
   1   5  -2  180.08   10.60
  -1   5   2  181.38   14.80
   1   5  -2  187.98   11.60
   1   5   2  180.38   14.40
  -1  -5   2  166.68   11.30
   1   5   2  185.18   10.80
  -1   5  -2  183.18    9.80
   1  -5  -2  193.98   15.10
  -1   5  -2  206.48   13.50
  -2  -5  -2   48.70    8.70
  -2   5   2   38.30    8.60
   2   5  -2   42.00    4.30
  -2  -5   2   53.09    6.30
   2  -5  -2   48.60    8.50
   2  -5  -2   39.20    4.10
   2   5   2   51.39    4.70
   2   5   2   48.00    8.30
  -2   5  -2   45.30    7.40
   3  -5   2   88.79    5.80
   3   5  -2   78.39    6.40
  -3  -5  -2   80.99    6.50
  -3   5   2   65.09    6.90
  -3   5   2   77.49    5.70
   3  -5   2   72.29    5.80
   3  -5   2   82.69    6.00
  -3   5   2   78.39    4.50
   3  -5   2   81.59    5.60
  -3   5  -2   81.49    5.90
   3   5   2   71.09    6.30
   3  -5  -2   88.49    6.20
  -3  -5   2   73.69    6.60
   4  -5   2  103.49    7.30
   4  -5   2  105.39    6.90
   4  -5   2  109.99    7.30
  -4   5   2   98.19    6.80
   4  -5   2  101.89    7.40
   4   5  -2  109.79    9.10
  -4   5   2  103.89    7.50
  -4  -5  -2  103.79    7.50
  -4   5  -2  106.49    9.80
   4   5   2   96.19    8.20
  -4  -5   2   93.09    6.30
   4  -5  -2  112.49    7.60
  -4  -5   2   95.09    7.90
  -4   5  -2  107.39    6.80
   4  -5  -2  105.69    7.60
  -5  -5  -2   92.39    9.10
   5   5  -2   97.09    7.00
  -5   5   2  100.19    6.70
   5  -5   2   98.59    7.60
   5  -5   2   80.29    6.90
  -5   5   2   99.89    7.60
  -5   5   2   92.69    7.80
  -5   5  -2  104.29    7.00
  -5  -5   2  102.89    7.50
   5  -5  -2  116.59    8.00
  -5   5  -2  104.79    7.70
  -5  -5   2   76.89    8.40
  -5  -5   2   95.79    7.10
   6   5  -2    4.80    2.50
  -6  -5  -2    7.40    2.20
  -6   5   2    4.50    2.60
  -6   5   2   10.50    2.80
   6  -5   2    8.10    2.90
  -6   5  -2    6.80    2.10
  -6   5  -2   12.40    2.90
  -6   5  -2    9.30    2.90
   6   5   2    5.20    2.50
  -6  -5   2    5.30    2.10
  -6  -5   2    4.90    1.90
  -7  -5  -2    5.40    2.00
   7   5  -2    8.50    2.80
  -7  -5  -2    4.40    2.30
  -7   5   2    8.80    4.00
   7  -5   2    5.90    2.90
  -7   5   2   -0.90    1.90
  -7  -5   2    6.40    1.70
   7   5   2    4.80    2.50
  -7   5  -2    6.30    2.30
  -7   5  -2    9.70    3.40
  -7  -5   2    5.30    2.30
  -7   5  -2    3.70    2.00
   8   5  -2    1.30    2.10
  -8  -5  -2    0.50    1.20
  -8   5   2    4.00    2.30
  -8  -5  -2    2.70    1.30
  -8   5   2    2.60    1.40
  -8  -5   2    3.00    0.80
  -8  -5   2    2.40    1.70
  -8  -5   2    5.50    1.40
   8   5   2    4.60    2.20
  -8   5  -2    2.80    1.60
  -8   5  -2    6.90    3.00
   0   6  -2   43.90    6.30
   0  -6  -2   47.90    5.30
   0  -6   2   44.30    4.50
   0   6   2   43.10    3.80
   0  -6   2   45.50    4.10
   0  -6  -2   41.20    4.40
   0   6  -2   41.50    3.50
   1   6  -2  105.09    7.20
   1  -6   2  113.29    7.40
  -1  -6  -2  108.39    8.10
  -1  -6  -2  103.19    9.30
  -1  -6   2  111.89    7.80
  -1   6  -2  125.59   10.80
   1  -6  -2  113.29    7.60
   1   6   2  103.39    7.40
  -2  -6  -2    2.30    3.10
  -2   6   2    3.80    1.70
  -2  -6  -2    8.40    4.40
   2   6  -2    5.90    2.00
   2  -6   2    5.20    2.30
   2  -6   2    8.40    2.60
   2  -6   2    6.30    2.40
   2  -6  -2    3.60    2.70
   2  -6  -2   10.10    2.50
  -2  -6   2    8.80    3.70
  -2  -6   2    3.10    2.70
   2   6   2    3.50    1.70
  -3   6   2   10.10    2.10
  -3  -6  -2   13.90    3.90
   3  -6   2   10.70    2.80
   3  -6   2   16.00    2.60
   3   6  -2   11.40    3.30
   3  -6   2   15.50    3.30
  -3  -6   2   -5.40    5.10
   3  -6  -2   12.80    3.20
   3   6   2   13.10    3.00
  -3   6  -2   16.80    2.30
  -3  -6   2    9.50    4.70
  -3   6  -2   13.20    2.30
   3  -6  -2   13.00    3.20
   4  -6   2   51.99    5.40
   4  -6   2   56.49    4.90
  -4  -6  -2   59.29    6.60
  -4   6   2   64.59    5.50
   4  -6   2   57.79    5.40
  -4   6   2   66.59    5.20
  -4  -6   2   61.29    5.30
  -4  -6   2   50.49    4.90
   4  -6  -2   55.39    5.60
  -4   6  -2   60.79    5.10
  -4  -6   2   63.59    8.10
  -4   6  -2   64.59    5.60
   5  -6   2   57.49    5.70
  -5   6   2   42.20    5.40
   5   6  -2   51.69    5.20
  -5   6   2   58.89    6.60
   5  -6   2   55.49    5.30
  -5   6   2   61.29    5.20
  -5  -6  -2   58.39    5.50
   5  -6   2   41.70    5.10
  -5  -6   2   56.29    4.30
  -5  -6   2   65.19    5.70
  -5  -6   2   55.79    5.50
  -5   6  -2   57.79    7.00
   5  -6  -2   55.19    6.70
   5   6   2   58.99    5.30
  -5   6  -2   63.89    5.30
  -6   6   2   28.90    4.20
  -6  -6  -2   14.10    2.90
  -6   6   2   17.40    3.30
  -6  -6  -2   20.70    3.40
   6   6   2   19.80    3.50
  -6  -6   2   22.00    2.70
  -6  -6   2   17.30    3.10
  -6   6  -2   31.50    3.70
  -6   6  -2   28.80    4.40
  -7   6   2   11.30    2.60
   7   6  -2   21.30    3.10
  -7  -6  -2   14.60    2.40
  -7  -6  -2   23.70    2.70
  -7  -6   2   12.40    1.60
  -7  -6   2   20.80    3.20
  -7  -6   2   15.50    2.60
   7   6   2   17.90    3.00
  -7   6  -2   22.00    3.30
  -8  -6  -2    0.60    1.30
  -8  -6  -2    2.30    1.10
  -8   6   2    2.30    1.40
   8   6  -2    1.00    1.60
  -8  -6   2    1.60    1.50
  -8  -6   2    1.20    1.60
   8   6   2    3.20    1.50
   0  -7   2   10.10    4.70
   0  -7  -2   12.50    4.50
   0   7   2   15.10    2.70
   0  -7  -2   14.30    3.30
   0  -7   2   17.60    4.00
   0   7  -2   17.20    2.40
   0  -7   2   14.90    3.20
   1  -7   2   68.29    5.70
  -1  -7  -2   73.09    6.30
  -1  -7  -2   59.59    7.80
   1   7  -2   64.59    5.60
   1  -7   2   69.39    6.30
  -1  -7   2   79.89    6.20
  -1  -7   2   66.69    7.80
   1  -7  -2   71.89    7.00
   1   7   2   61.39    5.70
   1  -7  -2   67.99    5.70
  -1  -7   2   63.89    5.40
  -2  -7  -2   60.79    7.50
   2   7  -2   69.99    6.40
  -2  -7  -2   65.49    6.80
  -2   7   2   65.69    5.30
   2  -7   2   68.39    5.70
   2  -7   2   70.09    6.80
   2  -7   2   74.29    5.80
   2  -7  -2   71.49    5.80
   2  -7  -2   74.19    6.80
  -2   7  -2   63.39    5.60
  -2  -7   2   73.89    7.50
  -2  -7   2   64.89    8.30
  -2  -7   2   66.49    5.60
   2   7   2   71.39    6.70
  -3  -7  -2   23.80    5.30
   3  -7   2   35.40    5.20
   3  -7   2   33.00    4.90
  -3   7   2   31.00    3.90
   3  -7   2   31.60    4.10
  -3  -7   2   16.70    3.70
   3  -7  -2   32.40    4.60
   3  -7  -2   29.90    3.90
  -3  -7   2   30.20    7.30
  -3  -7   2   34.80    4.00
  -3  -7   2   21.30    7.60
  -3   7  -2   27.50    4.10
  -4   7   2   46.30    4.80
   4  -7   2   38.30    4.50
  -4  -7  -2   47.80    5.30
   4  -7   2   26.60    4.50
  -4  -7   2   45.40    5.10
  -4  -7   2   38.20    3.20
  -4  -7   2   57.49    5.20
   4  -7  -2   46.00    5.10
  -4  -7   2   32.80    7.60
  -4   7  -2   44.60    4.50
   5  -7   2   16.90    3.10
   5   7  -2   23.90    3.40
  -5  -7  -2   19.50    3.50
   5  -7   2   22.80    3.20
   5  -7  -2   16.10    2.90
  -5  -7   2   20.70    3.10
  -5  -7   2   23.30    3.90
   5   7   2   24.40    3.50
  -5   7  -2   25.60    4.30
  -5  -7   2   11.40    3.00
  -5   7  -2   31.00    4.30
   6   7  -2   20.50    3.00
  -6  -7  -2   12.10    2.00
  -6  -7  -2   11.40    2.70
  -6  -7   2   16.30    3.20
   6   7   2   14.40    2.80
  -6   7  -2   23.30    3.30
  -6  -7   2   14.90    2.50
  -6   7  -2   18.80    2.80
  -7  -7  -2    0.70    1.60
   7   7  -2    2.60    1.70
  -7  -7  -2    2.50    0.90
  -7  -7  -2    2.60    1.50
  -7  -7   2    4.40    1.80
   7   7   2    2.70    2.10
  -7  -7   2    4.40    1.80
   8   7  -2    4.00    1.30
  -8  -7  -2    2.10    1.00
   8   7   2    4.70    1.20
  -8  -7   2    3.80    1.20
  -8  -7   2    3.80    1.30
   0  -8   2   22.70   11.20
   0   8   2   21.30    4.50
   0  -8  -2   17.20    4.60
  -1  -8  -2   22.40    6.90
   1  -8   2   29.30    6.70
   1  -8   2   34.40    4.60
  -1  -8  -2   29.30    5.70
  -1   8  -2   21.10    3.20
   1   8   2   41.40    6.50
   1  -8  -2   34.80    5.90
  -1  -8   2   33.10    4.00
   1  -8  -2   30.00    5.30
  -1  -8   2   34.70    5.30
  -1  -8   2   20.30   11.10
  -2  -8  -2    6.90    5.30
   2  -8   2    5.30    2.90
   2  -8   2    8.20    5.70
  -2  -8  -2    8.00    5.00
  -2  -8   2    8.20    8.90
   2  -8  -2    5.20    2.60
  -2  -8   2   10.20    2.90
   2  -8  -2    9.00    3.70
  -2  -8   2    8.90    6.50
   3  -8   2   17.70    3.60
   3  -8   2   14.70    5.80
  -3  -8  -2   13.20    5.30
  -3  -8  -2    9.80    3.00
  -3  -8   2   -0.10    7.40
   3  -8  -2    9.70    3.10
   3  -8  -2   12.50    2.80
  -3  -8   2   10.50    3.30
  -3  -8   2   11.60    8.20
  -3   8  -2   13.00    2.40
   4  -8   2   14.70    4.40
   4   8  -2   23.50    3.20
   4  -8   2   25.10    3.70
  -4  -8  -2   20.50    3.90
  -4   8  -2   30.20    4.10
  -4  -8   2   21.40    3.50
  -4  -8   2   14.30    2.90
  -4  -8   2   18.00    6.70
   4  -8  -2   14.90    3.10
   5  -8   2    1.10    2.30
  -5  -8  -2    3.80    2.40
  -5  -8  -2    3.80    1.40
  -5  -8  -2    0.50    2.60
   5  -8   2    2.50    2.10
  -5  -8  -2    3.20    2.00
   5   8  -2    5.40    2.20
  -5  -8   2    2.80    1.70
   5  -8  -2    2.60    1.90
  -5  -8   2    7.40    2.30
   5   8   2    4.50    2.20
  -5  -8   2    4.90    2.70
  -5   8  -2    5.70    2.20
   6   8  -2    0.60    1.60
  -6  -8  -2   -1.70    1.80
  -6  -8  -2    0.90    1.60
  -6  -8   2    1.80    1.60
  -6  -8   2    3.00    1.80
   6   8   2    0.20    1.90
   7   8  -2    1.50    1.40
  -7  -8  -2   -0.20    1.20
   7   8   2   -1.40    1.30
  -7  -8   2    0.20    1.80
  -7  -8   2    0.30    1.30
   0  -9   2    8.60    9.40
   0  -9  -2    4.40    7.10
   0  -9  -2    2.90    5.30
   0  -9   2   -0.10    4.00
  -1  -9  -2   47.20    8.50
  -1  -9  -2   29.90    3.90
  -1  -9  -2   26.70    7.30
   1  -9   2   23.70    9.40
   1  -9   2   33.30    5.00
  -1  -9   2   33.20    7.00
   1  -9  -2   38.60    6.00
  -1  -9   2   22.10   10.90
   1  -9  -2   23.90    6.60
  -1  -9   2   29.80    3.80
   2  -9   2   -0.70    2.90
  -2  -9  -2    0.00    1.70
   2  -9   2   -1.70    8.20
  -2  -9  -2   -2.40    6.20
  -2  -9  -2    0.60    4.80
  -2  -9   2   -1.60    8.30
  -2  -9   2   -2.30    2.50
  -2  -9   2   -3.40   13.30
   2  -9  -2    1.10    3.70
   2  -9  -2    0.00    3.70
   3  -9   2   24.60    5.90
  -3  -9  -2   16.00    6.00
   3  -9   2   11.10    9.30
  -3  -9  -2   11.60    3.40
  -3   9  -2   23.30    3.90
  -3  -9   2   11.40    4.30
   3  -9  -2   16.10    3.00
  -3  -9   2   13.30    3.40
  -3  -9   2   21.50   12.40
  -4  -9  -2    2.80    2.60
   4  -9   2    0.40    2.00
   4   9  -2    0.30    1.70
  -4  -9  -2    0.40    2.20
   4  -9   2   -1.50    4.70
  -4  -9   2    0.70    1.60
   4  -9  -2    1.40    1.80
   4   9   2    2.90    1.90
  -4  -9   2    5.80    4.80
   5   9  -2   18.70    2.60
   5  -9   2    6.90    2.60
  -5  -9   2   15.70    3.00
   5   9   2   16.80    3.30
  -5  -9   2   12.50    2.30
  -6  -9  -2    8.80    2.00
   6   9  -2   13.20    2.00
   6   9   2   10.40    1.90
  -6  -9   2    9.00    2.00
   0 -10   2   14.90    6.50
   0 -10  -2   11.70    6.20
   0 -10  -2    4.50    6.40
   0 -10   2    3.50   10.30
  -1 -10  -2    4.30    6.70
  -1 -10  -2   -2.10    4.40
   1 -10   2    2.00    4.50
   1 -10   2   -1.70    9.90
   1 -10  -2    2.20    5.50
  -1 -10   2    2.90   10.80
  -1 -10   2    5.10    8.10
   1 -10  -2    3.00    5.70
  -2 -10  -2    3.50    2.50
  -2 -10  -2    5.10    1.90
  -2 -10  -2    2.10    5.30
   2 -10   2    7.50    3.70
   2 -10   2   -3.20    8.80
  -2 -10   2    2.60    1.70
   2 -10  -2    4.00    4.80
  -2 -10   2    0.60    8.50
   2 -10  -2    3.30    4.40
  -2 -10   2    6.40    6.90
   3 -10   2    2.40    3.00
   3 -10   2   -2.10    6.80
  -3 -10  -2    3.60    3.20
  -3 -10  -2    2.40    1.60
   3 -10  -2    1.40    2.50
  -3 -10   2    1.70    6.60
   3 -10  -2   -0.20    2.80
  -3 -10   2    1.90    1.80
  -4 -10  -2    2.00    1.40
   4 -10   2    1.10    2.40
   4  10  -2    4.20    1.60
   4 -10   2    1.40    3.90
  -4 -10  -2    4.40    2.30
  -4 -10   2    2.50    1.60
  -4 -10   2    2.60    2.70
   4 -10  -2    1.60    1.40
   4  10   2    2.50    1.60
   5  10  -2    0.80    1.10
  -5 -10  -2    0.40    1.40
   5  10   2    1.70    1.40
  -5 -10   2    2.40    1.40
   0 -11   2   14.90    7.40
   0 -11   2   10.90    8.40
   0 -11  -2   21.90    5.20
   0 -11  -2   19.00    3.80
  -1 -11  -2    0.90    4.40
   1 -11   2   -1.90    7.90
   1 -11   2    3.00    5.90
  -1 -11  -2    0.60    2.20
   1 -11  -2   -3.40    4.50
  -1 -11   2    0.80    5.60
  -1 -11   2    1.40    6.40
   1 -11  -2    0.80    2.60
   2 -11   2    5.20    6.40
   2 -11   2   -1.20    4.50
  -2 -11  -2    4.40    2.70
   2 -11  -2    0.20    2.20
   2 -11  -2    2.80    3.10
  -2 -11   2    1.30    6.40
  -2 -11   2    4.70    2.10
   3  11  -2    1.20    1.30
   3 -11   2   -1.00    3.40
  -3 -11  -2    2.30    1.20
  -3 -11  -2    0.50    1.40
   3 -11   2    2.10    3.60
  -3 -11   2    1.60    2.40
   3  11   2    0.10    1.30
   3 -11  -2    0.60    1.20
  -3 -11   2    0.60    1.20
   4  11  -2    2.80    1.70
  -4 -11  -2    0.50    1.00
   4 -11   2    2.00    1.00
   4  11   2    3.10    1.20
  -4 -11   2    4.60    1.60
  -4 -11   2    0.40    1.30
   0 -12   2    0.20    1.70
   0 -12  -2    0.10    1.30
   0 -12   2   -2.80    3.70
  -1 -12  -2    1.00    1.30
   1 -12   2   -0.60    1.90
   1 -12   2   -0.30    4.50
   1 -12  -2    1.20    1.10
  -1 -12   2    2.10    3.00
   2 -12   2    1.00    3.30
  -2 -12  -2    0.80    1.20
   2 -12   2    0.10    1.50
   2  12   2    2.80    1.00
   0   0  -3    2.90    1.20
   0   0   3    0.40    0.90
   0   0  -3   -0.40    0.50
  -1   0  -3 3406.86  166.18
   1   0  -3 3177.98  165.58
  -1   0   3 3237.28  165.78
   1   0   3 3567.24  166.38
   2   0   3  821.62   43.90
   2   0  -3  786.22   43.20
   2   0   3  852.31   40.50
  -2   0   3  828.52   43.20
  -2   0  -3  802.72   43.60
  -2   0   3  786.62   40.30
  -3   0   3  577.64   32.80
  -3   0  -3  531.95   32.60
  -3   0   3  556.74   32.30
  -3   0   3  562.34   27.80
   3   0   3  547.55   28.60
  -4   0   3  368.46   19.70
  -4   0   3  380.86   18.80
  -4   0  -3  349.27   19.50
  -4   0  -3  328.87   24.70
   4   0   3  371.56   19.40
  -4   0  -3  428.06   28.50
  -4   0   3  370.06   25.70
  -4   0   3  340.87   24.70
  -5   0   3   60.39    4.00
   5   0   3   57.09    8.20
   5   0   3   61.79    4.90
  -5   0  -3   58.29    4.20
   5   0   3   61.79    4.90
  -5   0   3   57.19    5.30
   5   0  -3   57.29    5.00
  -5   0  -3   53.29    5.00
  -5   0  -3   64.59    5.00
   5   0  -3   53.69    5.10
  -5   0   3   59.99    4.70
   6   0   3   50.59    6.40
  -6   0   3   57.59    4.90
  -6   0  -3   46.70    3.80
  -6   0  -3   49.99    5.00
   6   0   3   45.60    5.80
   6   0  -3   47.90    6.00
   6   0  -3   63.49    5.40
   6   0   3   52.69    5.50
  -6   0  -3   46.80    5.20
  -6   0   3   51.99    5.40
   6   0  -3   48.80    5.40
  -7   0  -3    0.90    2.40
   7   0   3    3.60    2.20
  -7   0   3    2.00    2.10
  -7   0  -3    0.60    2.20
   7   0  -3    3.60    2.50
   7   0  -3    0.60    2.90
  -7   0   3    1.60    2.00
   7   0   3   -0.10    2.40
  -8   0   3   14.70    3.70
   8   0   3    6.80    2.70
  -8   0  -3   14.20    3.70
  -8   0  -3   14.00    3.00
  -8   0   3    6.80    2.20
   8   0  -3    5.50    3.10
  -9   0   3    1.90    1.50
  -9   0   3    5.10    2.20
  -9   0  -3    4.30    1.70
   9   0   3    2.20    1.60
  -9   0  -3    2.90    1.90
  -9   0   3    2.50    1.40
   0   1  -3  884.61   45.40
   0   1   3  824.72   47.50
   0  -1  -3  939.11   47.00
   0  -1   3  951.40   45.50
   0   1   3  972.50   45.30
   0  -1   3  913.71   45.10
   1  -1   3 1381.26   70.69
  -1  -1  -3 1481.65   73.39
  -1  -1  -3 1511.65   71.19
   1  -1   3 1532.05   72.89
  -1   1   3 1385.26   73.09
   1  -1  -3 1410.96   73.09
  -1  -1   3 1281.17   70.89
   1   1   3 1457.45   71.09
  -1  -1   3 1336.87   71.69
   1   1   3 1714.13   74.99
   1  -1  -3 1376.86   71.09
  -1   1  -3 1431.96   72.69
  -2  -1  -3  786.82   41.70
  -2   1   3  780.72   41.40
  -2  -1  -3  735.53   38.20
   2  -1   3  781.22   37.80
  -2   1   3  769.42   37.90
  -2  -1   3  751.62   38.00
  -2  -1   3  736.93   40.20
   2  -1  -3  750.82   41.00
  -2  -1   3  751.52   40.40
   2   1   3  803.22   38.30
  -2   1  -3  737.33   43.00
   2   1   3  781.12   41.80
   3  -1   3  176.68    9.00
  -3   1   3  165.08   13.40
  -3  -1  -3  156.68   13.20
  -3   1   3  160.18    8.80
  -3  -1   3  171.78    9.00
  -3  -1   3  150.18   12.20
   3   1   3  172.28   10.50
   3   1   3  177.48   14.00
  -3   1  -3  173.08   13.30
  -3   1  -3  165.78   13.50
   4   1  -3   59.99    5.20
  -4   1   3   49.90    4.70
  -4   1   3   45.50    8.90
  -4   1   3   65.69   11.60
   4  -1   3   57.79    4.10
  -4  -1  -3   56.99    9.30
  -4   1   3   53.99    3.50
  -4  -1  -3   56.49    4.80
  -4  -1   3   52.19    9.10
  -4   1  -3   77.79   11.80
  -4   1  -3   50.89    4.50
   4   1   3   57.29    4.70
  -4  -1   3   58.49    3.90
  -4   1  -3   62.19   11.00
  -4  -1   3   56.19    5.00
   5  -1   3   10.50    2.10
  -5  -1  -3   10.00    1.70
  -5  -1  -3    7.00    2.00
  -5   1   3    9.50    2.30
   5   1  -3   10.30    2.30
   5  -1   3   11.00    2.80
  -5   1   3   10.20    2.50
   5  -1   3   10.40    2.20
   5   1  -3    8.10    2.50
  -5   1   3    6.00    3.80
   5   1   3    9.10    2.80
  -5  -1   3   13.90    2.50
  -5  -1   3    9.90    3.40
   5  -1  -3   10.60    2.40
  -5  -1   3   11.00    2.20
   5  -1  -3    9.70    2.90
   5   1   3    6.00    2.30
  -5   1  -3   10.90    2.00
  -5   1  -3   10.80    3.30
   5  -1  -3   14.00    3.30
   5   1   3    9.20    2.30
  -5  -1   3   11.00    1.90
   6  -1   3   69.89    6.30
  -6  -1  -3   75.89    6.30
  -6  -1  -3   69.59    5.90
   6   1  -3   61.69    6.80
  -6   1   3   66.59    5.80
  -6   1   3   63.79    6.10
   6   1  -3   75.39    6.30
   6  -1   3   73.99    6.40
  -6  -1   3   76.79    5.50
  -6  -1   3   67.19    5.60
   6   1   3   70.59    7.20
   6  -1  -3   68.29    6.30
   6   1   3   66.19    6.20
  -6   1  -3   68.29    6.40
  -6  -1   3   66.89    6.70
   6   1   3   76.59    5.90
   6  -1  -3   67.39    5.80
   6  -1  -3   68.89    6.60
  -6   1  -3   70.19    6.20
  -6   1  -3   67.79    4.90
   7   1  -3    3.60    3.80
  -7  -1  -3    0.90    2.30
  -7  -1  -3    5.40    2.70
  -7   1   3    2.60    2.40
  -7   1   3    2.20    1.90
   7  -1   3    0.20    2.60
   7   1  -3    7.40    2.90
   7  -1   3    0.00    2.00
  -7   1  -3    3.90    1.40
   7  -1  -3    3.90    2.70
  -7   1  -3    3.80    2.50
  -7  -1   3    7.30    2.30
   7  -1  -3    1.10    2.50
  -7   1  -3    4.70    2.80
  -7  -1   3    3.60    2.30
   7   1   3    0.90    2.40
  -8   1   3   23.20    4.30
   8  -1   3   10.00    2.90
  -8  -1  -3   18.50    3.20
   8   1  -3   16.50    3.10
  -8  -1  -3   19.40    3.70
  -8   1   3   14.90    2.80
   8   1   3   15.10    3.50
   8  -1  -3   13.50    2.60
  -8   1  -3   11.10    2.80
   8  -1  -3   13.10    3.30
  -8  -1   3   19.10    5.00
  -8  -1   3   12.80    2.60
   8   1   3   20.60    2.70
  -8   1  -3   14.50    2.80
  -9  -1  -3    3.60    1.60
  -9   1   3   12.90    3.20
  -9  -1  -3    3.50    1.70
  -9   1   3    5.00    1.60
   9  -1   3    5.00    1.90
  -9   1   3    8.00    2.30
   9   1  -3    6.00    1.50
  -9  -1   3    4.60    1.70
   9   1   3    5.30    1.70
  -9  -1   3   10.60    2.40
  -9   1  -3    2.90    1.70
  -9   1  -3    9.50    2.60
  -9  -1   3    4.70    1.60
   0   2   3   83.69    7.10
   0  -2  -3   91.19    7.30
   0   2   3   89.89    5.30
   0  -2   3   92.29    5.00
   0  -2  -3   97.99    5.40
   1  -2   3   96.39    4.80
  -1  -2  -3   93.79    5.50
  -1  -2  -3   87.39    7.70
  -1   2   3   92.69    9.00
  -1   2  -3   95.29    6.60
   1   2   3   85.29    5.50
  -1   2  -3   98.69    6.80
   1  -2  -3   99.19    5.40
  -1  -2   3   85.79    5.10
  -1  -2   3   82.59    5.30
  -1  -2   3   80.59    5.20
   1  -2  -3   98.49    7.80
   1   2   3   90.29    7.60
  -2  -2  -3  201.08   11.00
  -2  -2  -3  195.38   14.40
   2   2   3  181.88   15.80
  -2   2  -3  194.38   13.30
   2  -2  -3  192.58   10.80
  -2  -2   3  215.78   10.70
  -2  -2   3  206.48   12.50
  -2  -2   3  195.28   12.20
   2  -2  -3  208.18   14.00
   2   2   3  205.68   11.00
  -2   2  -3  204.18   13.80
   3   2  -3  224.98   12.70
  -3   2   3  230.08   11.60
  -3  -2  -3  226.68   16.80
  -3   2   3  211.48   12.50
  -3   2  -3  217.28   16.90
  -3   2  -3  241.18   17.10
   3  -2  -3  214.98   18.60
  -3  -2   3  221.58   15.30
   3   2   3  234.28   12.70
  -3  -2   3  252.17   17.50
   3   2   3  214.58   17.00
  -3  -2   3  231.98   12.10
  -4   2   3   93.59    6.60
   4   2  -3   91.09    6.60
  -4   2   3   92.19   11.70
   4  -2   3   94.79    5.20
  -4  -2  -3   92.39   11.60
  -4  -2  -3   79.29    6.00
  -4   2   3  101.29   14.40
  -4   2   3   98.99    5.10
  -4  -2   3   98.29    6.50
   4   2   3   79.99   12.40
  -4   2  -3   83.99    6.20
  -4  -2   3   95.09    5.70
  -4   2  -3   84.99   12.20
  -4  -2   3   89.19   11.20
  -4   2  -3   96.09   11.70
   4   2   3   78.49    6.30
   5  -2   3  273.37   14.60
   5   2  -3  255.57   14.60
  -5   2   3  270.97   15.00
  -5   2   3  245.98   13.90
  -5   2   3  264.67   15.20
   5  -2   3  276.67   15.20
   5   2  -3  256.77   15.50
   5  -2   3  234.48   14.40
  -5  -2  -3  253.27   14.80
  -5  -2   3  258.57   14.60
  -5  -2   3  262.97   14.40
   5   2   3  262.57   15.50
   5  -2  -3  258.77   15.30
   5   2   3  261.47   14.60
  -5  -2   3  260.77   15.10
  -5   2  -3  285.77   15.60
   5  -2  -3  275.47   14.70
  -5   2  -3  277.97   17.90
  -5   2  -3  246.28   14.20
  -5  -2   3  265.87   14.60
   5   2   3  273.57   15.40
   6   2  -3   14.00    3.20
  -6   2   3   14.10    3.20
  -6   2   3   17.00    3.30
   6  -2   3   10.70    2.50
  -6  -2  -3   15.90    3.10
  -6  -2  -3   12.90    4.60
   6  -2   3    8.90    3.70
   6  -2  -3   18.10    3.60
  -6  -2   3   17.30    3.50
   6   2   3    8.60    3.10
  -6   2  -3   14.50    3.10
   6   2   3   18.60    4.80
   6  -2  -3   14.50    3.90
  -6   2  -3   10.70    2.70
  -6  -2   3   13.70    3.70
   6   2   3   16.10    3.70
  -6  -2   3   16.10    2.90
   7   2  -3   13.90    3.50
  -7   2   3   13.80    3.40
  -7  -2  -3   18.40    3.50
  -7  -2  -3   10.30    3.10
   7  -2   3   15.30    3.70
  -7   2   3   20.50    3.70
  -7  -2  -3    8.90    2.70
   7  -2  -3   15.20    3.60
   7  -2  -3   13.40    2.90
   7   2   3    9.60    3.50
  -7  -2   3   13.90    2.80
  -7   2  -3    7.40    2.90
  -7  -2   3   11.10    2.70
  -7   2  -3   21.50    4.10
  -7  -2   3   14.30    3.50
  -7   2  -3   16.50    2.30
   7   2   3   11.50    3.20
  -8  -2  -3    8.30    2.50
  -8   2   3   13.30    2.70
  -8   2   3   16.80    3.80
   8  -2   3    9.60    2.80
  -8   2   3    7.70    2.50
  -8  -2  -3   13.00    2.60
   8   2  -3   11.30    2.80
  -8   2  -3   13.90    3.30
   8   2   3   10.80    2.50
  -8  -2   3   14.20    3.10
   8   2   3    5.60    3.10
   8  -2  -3    9.00    3.20
  -8  -2   3    5.50    2.00
  -8   2  -3   11.50    2.70
  -9   2   3   -0.20    1.30
   9   2  -3    0.30    1.40
  -9  -2  -3    1.20    1.20
   9  -2   3    1.20    1.40
  -9   2   3    6.20    2.30
  -9   2  -3   -0.20    1.10
  -9  -2   3    0.60    1.10
   9   2   3   -4.90    1.60
  -9  -2   3    3.20    1.70
  -9   2  -3    5.70    2.30
  -9  -2   3    5.10    1.50
   0  -3  -3 1570.64   76.79
   0   3  -3 1553.74   76.59
   0   3   3 1537.65   79.79
   0   3  -3 1512.45   76.29
   0  -3   3 1595.54   76.29
   0   3  -3 1514.85   76.79
  -1   3   3    0.90    1.10
  -1  -3  -3    3.70    1.60
  -1   3   3    2.10    2.40
   1  -3   3    1.50    0.70
   1   3  -3    0.90    1.10
  -1  -3  -3    3.90    2.30
   1   3   3    2.30    1.50
   1  -3  -3    1.70    2.30
   1   3   3    0.70    1.90
  -1   3  -3    1.60    1.60
  -1   3  -3    1.10    1.50
  -1  -3   3    0.90    1.20
   1  -3  -3    1.00    1.00
  -2   3   3   80.79    8.50
   2   3  -3   82.59    5.40
   2  -3  -3   76.59    4.90
  -2   3  -3   81.19    7.70
   2  -3  -3   89.99    8.60
  -2  -3   3   75.39    4.80
  -2   3  -3   74.49    7.80
   2   3   3   72.09    5.20
  -2  -3   3   72.19    6.10
  -2  -3   3   72.29    5.80
   2   3   3   72.19    8.00
  -3   3   3  116.19   13.30
   3   3  -3  105.69    6.90
  -3  -3  -3   88.89   10.50
  -3   3   3   99.99    5.40
   3   3   3   91.09    6.60
  -3   3  -3  104.69   10.40
   3   3   3   90.39   11.00
   3  -3  -3   99.29   10.90
  -3   3  -3   96.29    6.70
  -3   3  -3   97.79   10.80
  -3  -3   3   99.29    6.00
  -3  -3   3   88.79    8.60
  -4   3   3   67.09    4.90
   4  -3   3   66.19    5.50
  -4  -3  -3   76.39    5.50
  -4   3   3   68.49    4.00
   4   3  -3   74.89    6.00
  -4   3   3   70.99    5.60
  -4  -3  -3   72.39    5.40
  -4   3   3   48.30   11.70
   4  -3   3   76.99    5.10
  -4   3   3   76.89   13.80
   4  -3  -3   81.79    5.30
   4   3   3   67.99    5.20
  -4  -3   3   67.39    5.40
  -4   3  -3   68.69    5.40
   4  -3  -3   80.69    5.70
  -4  -3   3   73.09    4.90
  -4  -3   3   73.79    5.30
   4   3   3   59.69    6.30
  -4  -3   3   73.39    4.90
  -4   3  -3   69.09    5.10
   5   3  -3   43.10    5.30
  -5  -3  -3   41.10    4.50
   5  -3   3   48.80    4.10
  -5   3   3   48.50    5.30
  -5   3   3   41.90    4.50
   5   3  -3   41.90    4.50
   5  -3   3   52.39    5.00
  -5  -3   3   51.79    4.40
  -5   3  -3   48.20    5.00
  -5  -3   3   45.90    6.40
   5   3   3   47.20    4.50
   5  -3  -3   47.10    5.00
   5  -3  -3   46.40    4.40
  -5   3  -3   53.59    4.30
   5   3   3   47.60    5.10
  -5  -3   3   45.50    4.40
  -5  -3   3   47.60    4.30
  -5   3  -3   46.30    5.00
   5   3   3   48.70    5.30
   6  -3   3  130.69    9.20
  -6  -3  -3  119.89    8.70
  -6   3   3  132.79    9.10
   6   3  -3  124.69    8.70
  -6  -3  -3  137.59    8.80
  -6   3   3  124.19    9.30
  -6  -3   3  129.19    8.30
   6  -3  -3  119.89    8.20
  -6   3  -3  129.99    9.20
   6   3   3  121.69    9.20
   6   3   3  147.99    8.90
  -6   3  -3  135.89    8.10
  -6  -3   3  121.09    9.00
  -6   3  -3  130.89   10.50
   6  -3  -3  124.09    9.30
  -6  -3   3  119.59    8.50
  -7  -3  -3   15.30    3.10
  -7  -3  -3   17.80    3.10
  -7  -3  -3   15.10    2.60
  -7   3   3   10.20    3.00
  -7   3   3    9.40    2.80
   7  -3   3   10.50    3.30
   7   3  -3   15.00    3.40
  -7  -3   3   11.90    3.20
  -7   3  -3   17.20    3.90
  -7   3  -3   16.40    2.40
   7  -3  -3   11.50    2.50
  -7  -3   3   11.30    2.70
   7   3   3   14.00    3.30
  -7  -3   3   18.20    2.90
   7  -3  -3   14.60    3.80
  -7   3  -3   14.50    3.40
   7   3   3    8.10    4.10
  -8  -3  -3    9.30    2.30
  -8   3   3    6.00    2.20
   8   3  -3    5.80    2.50
  -8   3   3    5.80    2.70
  -8  -3  -3    7.30    2.30
   8  -3   3    2.60    2.10
  -8   3  -3    7.50    2.40
   8   3   3    1.20    2.60
  -8  -3   3    5.90    1.80
  -8   3  -3    4.90    2.50
  -8  -3   3    8.20    2.50
  -8  -3   3    2.80    1.80
  -9  -3  -3   -1.10    0.90
   9   3  -3   -0.90    1.40
  -9   3   3   -0.30    1.00
  -9   3   3    0.50    1.90
  -9  -3   3    0.60    1.30
  -9   3  -3   -0.20    1.90
  -9   3  -3    0.20    1.00
  -9  -3   3    0.60    0.80
   0  -4  -3   54.49    6.70
   0   4  -3   48.70    3.50
   0   4  -3   48.10    3.80
   0  -4   3   54.29    3.50
   0   4   3   56.29    4.00
   0  -4  -3   54.59    4.80
   0   4   3   60.19    6.90
  -1   4   3  197.08   15.00
  -1   4   3  209.58   11.10
   1   4  -3  174.38   11.60
  -1  -4   3  194.98   10.80
   1  -4  -3  211.18   15.10
  -1   4  -3  207.88   13.10
   1   4   3  206.68   14.90
  -1   4  -3  216.58   13.00
   1  -4  -3  204.18   11.20
   1   4   3  204.58   11.30
   2   4  -3  263.37   14.90
  -2   4   3  283.37   19.90
   2   4   3  270.67   19.20
   2   4   3  262.67   15.00
   2  -4  -3  282.97   14.70
  -2   4  -3  298.67   18.50
  -2  -4   3  278.87   14.40
  -2   4  -3  279.17   18.20
  -2  -4   3  229.48   15.10
   2  -4  -3  295.57   19.80
  -2  -4   3  252.07   15.40
  -3  -4  -3   52.69   10.00
   3   4  -3   68.09    5.50
  -3   4   3   91.29   13.20
  -3   4   3   72.69    4.10
  -3   4   3   68.89    5.10
   3   4   3   52.49    9.50
  -3  -4   3   58.09    7.90
  -3   4  -3   54.49   10.40
  -3  -4   3   70.69    4.80
   3   4   3   65.09    5.50
  -3   4  -3   73.59    5.20
   3  -4  -3   90.69   11.90
   4  -4   3    3.00    1.90
   4  -4   3   -0.40    1.60
  -4  -4  -3    1.90    2.10
  -4   4   3    4.50    1.60
   4  -4   3    3.90    1.60
  -4   4   3   -0.60    1.80
  -4   4   3    5.70    2.30
   4   4  -3   -0.80    1.40
   4   4   3   -0.30    1.60
  -4  -4   3    4.00    2.00
   4  -4  -3    2.50    1.60
  -4   4  -3    3.10    1.60
  -4  -4   3    3.50    1.90
  -4   4  -3    4.00    1.60
  -4  -4   3    2.30    1.20
  -4  -4   3    5.10    3.10
  -4  -4   3    0.70    1.30
   4   4   3   -1.30    1.50
   4  -4  -3    3.90    2.30
  -5   4   3  114.69    8.10
  -5  -4  -3   86.29    7.30
   5   4  -3  113.99    9.20
   5  -4   3  114.29    8.00
   5  -4   3  107.19    7.40
  -5   4   3  108.79    7.40
  -5   4   3  115.49    8.10
   5   4  -3  111.69    7.50
   5   4   3  108.79    9.10
  -5   4  -3  123.99    8.10
  -5  -4   3  121.99    8.20
   5  -4  -3  112.19    6.80
  -5   4  -3  100.09    8.10
  -5  -4   3   92.79    7.40
  -5  -4   3  115.29    7.10
  -5   4  -3  125.29    8.20
   6  -4   3   18.00    3.00
  -6  -4  -3   16.50    3.10
   6   4  -3   17.70    3.20
  -6   4   3    9.40    4.70
   6  -4   3    8.90    3.00
  -6   4   3   18.90    3.50
  -6  -4   3   16.90    3.10
  -6   4  -3   12.40    3.40
  -6   4  -3    7.60    3.30
   6   4   3   15.40    3.20
   6  -4  -3    8.60    3.50
  -6  -4   3   11.90    2.40
  -6  -4   3   10.90    2.50
  -6   4  -3   15.80    2.70
   7   4  -3   15.70    3.90
  -7  -4  -3   16.20    4.50
  -7  -4  -3   15.70    2.90
  -7   4   3   24.40    3.90
  -7   4   3   21.00    3.80
  -7   4  -3   22.60    4.20
  -7  -4   3   20.80    2.90
  -7  -4   3   18.90    3.20
  -7   4  -3   16.90    3.50
  -8   4   3    0.10    2.10
   8   4  -3    3.50    2.20
  -8  -4  -3    1.30    1.40
  -8  -4  -3    1.10    1.50
  -8   4   3    3.50    1.90
   8  -4   3    1.30    2.00
  -8  -4   3    1.90    1.50
  -8   4  -3    1.70    1.90
  -8   4  -3   -0.70    2.00
   8   4   3    1.00    1.80
  -8  -4   3    3.30    1.70
  -8  -4   3   -0.20    1.30
   9   4  -3    1.80    1.60
  -9   4   3   -0.20    1.90
  -9   4   3    2.30    0.90
  -9  -4   3    2.60    1.60
  -9   4  -3    3.00    1.50
   0   5   3  258.97   18.80
   0   5   3  255.37   14.20
   0   5  -3  257.97   13.70
   0  -5  -3  264.77   18.90
   0   5  -3  260.37   14.30
   1   5  -3  100.29    6.80
  -1   5   3  120.69   11.80
  -1  -5  -3  101.89   11.60
  -1   5   3  109.79    6.80
  -1  -5   3  103.29    6.50
   1   5   3  112.89    7.20
  -1   5  -3  116.89    8.80
   1  -5  -3  107.59   10.90
  -2   5   3  212.38   18.30
   2   5  -3  197.08   11.80
  -2  -5  -3  196.98   18.00
  -2  -5  -3  204.18   11.80
   2  -5  -3  207.58   20.10
  -2  -5   3  199.58   11.10
   2   5   3  186.38   11.80
   2   5   3  193.28   16.50
  -2   5  -3  204.48   17.00
   3  -5   3   24.10    3.10
   3   5  -3   25.00    3.80
  -3   5   3   28.00    3.10
   3  -5   3   28.70    3.50
   3  -5   3   16.10    3.30
  -3   5   3   22.50    3.40
   3  -5   3   24.00    4.50
  -3  -5  -3   27.60    4.00
  -3   5   3   23.70    3.20
  -3  -5   3   22.30    3.00
  -3   5  -3   32.10    3.50
   3  -5  -3   30.30    3.90
   3   5   3   30.20    4.00
  -3  -5   3   23.50    4.20
  -4   5   3   42.70    4.00
  -4   5   3   49.20    8.10
   4   5  -3   40.60    5.40
  -4  -5  -3   38.10    5.10
  -4   5   3   36.10    4.60
   4  -5   3   39.10    4.10
   4  -5   3   39.70    4.30
   4  -5   3   37.60    4.30
   4  -5   3   35.00    4.10
  -4  -5   3   35.60    3.20
   4  -5  -3   36.70    4.50
  -4   5  -3   37.30    4.40
  -4   5  -3   39.50    4.00
  -4  -5   3   42.20    5.60
  -4  -5   3   47.80    4.30
   4   5   3   38.50    5.10
   5  -5   3   45.30    4.40
  -5  -5  -3   47.30    4.90
   5  -5   3   46.00    4.90
   5  -5   3   45.00    4.80
  -5   5   3   42.10    4.30
  -5   5   3   37.90    4.80
  -5   5   3   47.10    5.30
   5   5  -3   40.30    4.50
   5  -5   3   36.60    4.50
  -5  -5   3   30.60    4.30
   5   5   3   38.60    4.40
  -5   5  -3   49.50    4.60
  -5   5  -3   40.70    5.00
  -5  -5   3   44.60    5.00
   6  -5   3   30.30    3.80
  -6   5   3   37.50    5.20
  -6  -5  -3   35.10    4.20
   6   5  -3   35.00    4.70
  -6   5   3   26.50    4.20
   6  -5   3   35.70    4.60
  -6   5  -3   39.50    5.50
  -6  -5   3   38.20    4.40
  -6   5  -3   41.40    4.40
   6   5   3   32.20    4.50
  -6  -5   3   32.00    3.40
  -7   5   3   14.70    3.70
   7  -5   3   10.60    2.90
  -7   5   3    7.80    2.40
  -7  -5  -3    7.30    2.20
   7   5  -3    9.00    2.80
  -7  -5  -3   12.60    2.50
  -7  -5   3    8.30    2.60
  -7   5  -3   15.80    3.40
  -7  -5   3    8.60    1.80
   7   5   3   12.10    2.80
  -7   5  -3   12.90    2.20
  -7   5  -3    9.20    3.50
  -8  -5  -3   -0.70    1.00
  -8   5   3    0.40    1.30
  -8  -5  -3    0.50    1.30
  -8   5   3    1.60    1.70
   8   5  -3   -1.40    1.60
   8   5   3   -2.40    1.50
  -8  -5   3    1.40    1.80
  -8   5  -3   -1.10    1.90
  -8  -5   3   -0.10    1.20
  -8   5  -3   -4.60    1.60
   0  -6  -3  169.38    9.60
   0  -6  -3  159.88   11.00
   0   6  -3  151.38    8.80
   0   6   3  153.98   10.70
   0  -6   3  155.58    9.70
   0  -6   3  138.09    9.80
  -1  -6  -3  102.99    9.70
  -1  -6  -3  110.99    7.70
   1  -6   3  123.19    7.70
   1   6  -3   94.99    6.80
   1  -6   3  104.19    7.40
   1   6   3  114.29    7.60
  -1  -6   3  104.19    7.20
   1  -6  -3  106.19    7.80
  -1  -6   3  103.19    7.30
  -1  -6   3   87.79    7.20
   1  -6  -3  105.39    7.00
  -1   6  -3   86.59    9.10
   2  -6   3   13.50    2.60
  -2  -6  -3   14.30    3.60
   2  -6   3   16.20    3.20
  -2   6   3   14.50    2.40
   2  -6   3   20.50    3.40
   2   6  -3    9.90    2.50
  -2  -6  -3   11.30    3.40
  -2  -6   3   15.80    3.40
  -2  -6   3   17.10    3.50
  -2  -6   3   17.40    3.80
   2  -6  -3    7.40    2.90
  -2  -6   3   14.20    2.60
   2   6   3   14.70    3.20
   2  -6  -3   15.40    3.20
  -3   6   3   33.60    3.80
   3  -6   3   30.40    3.60
   3  -6   3   26.10    4.10
   3   6  -3   32.30    4.60
  -3  -6  -3   34.40    4.50
  -3  -6  -3   21.80    3.50
   3  -6   3   33.00    3.80
  -3  -6   3   26.50    6.50
   3  -6  -3   33.30    4.30
  -3   6  -3   33.70    4.00
  -3  -6   3   40.30    4.40
   3  -6  -3   20.70    3.60
  -3  -6   3   26.80    5.60
  -3  -6   3   33.20    3.90
  -3  -6   3   21.60    2.70
   3   6   3   29.80    4.70
  -3   6  -3   32.50    3.80
  -4   6   3  148.09   10.10
  -4   6   3  156.98    9.60
   4  -6   3  135.29    9.30
   4  -6   3  141.29    9.70
  -4   6   3  137.39    9.70
   4  -6   3  142.99    9.70
   4  -6   3  145.99    9.00
  -4  -6  -3  149.49    9.80
   4  -6  -3  145.19    9.60
  -4  -6   3  134.09   11.40
  -4  -6   3  137.59   11.30
  -4  -6   3  133.09    8.10
  -4   6  -3  146.59    9.40
  -4   6  -3  149.49    9.00
   5   6  -3    2.40    2.00
   5  -6   3   -1.80    2.10
  -5  -6  -3    2.00    2.50
   5  -6   3    4.40    2.50
   5  -6   3    0.10    2.10
  -5   6   3    2.90    2.40
  -5  -6   3    1.40    1.20
  -5  -6   3    2.70    2.70
  -5  -6   3    2.50    1.90
   5   6   3    7.10    2.40
  -5   6  -3    0.60    4.20
  -5   6  -3    5.00    2.10
   6   6  -3    1.20    2.40
  -6   6   3    0.00    2.10
   6  -6   3    5.20    2.30
  -6   6   3    3.20    2.40
  -6   6  -3    2.70    2.20
   6   6   3    2.60    3.60
  -6  -6   3    2.70    2.80
  -6  -6   3    3.80    1.20
  -6   6  -3    2.40    2.10
  -7   6   3    3.40    2.10
  -7   6   3    0.40    1.80
  -7  -6  -3    0.60    1.50
  -7  -6  -3    1.50    1.50
   7   6  -3    2.30    2.00
  -7   6  -3    1.90    2.40
  -7   6  -3    0.70    1.60
  -7  -6   3    1.70    1.70
   7   6   3    0.50    1.90
  -7  -6   3    1.50    1.80
  -8  -6  -3    3.10    0.90
   8   6  -3    3.70    1.70
  -8  -6  -3    3.00    1.10
  -8   6   3    2.30    1.30
  -8  -6  -3    2.30    1.10
   8   6   3    2.40    1.40
  -8  -6   3    3.00    1.40
  -8  -6   3    3.20    1.60
   0  -7   3   42.20    4.50
   0  -7  -3   41.50    4.90
   0   7   3   44.40    4.40
   0  -7   3   36.00    5.00
   0  -7  -3   30.80    5.30
   0   7  -3   38.00    3.30
   0  -7   3   31.80    5.00
  -1  -7  -3    9.50    3.70
   1  -7   3   14.20    3.20
   1  -7   3   15.20    3.60
  -1  -7  -3   15.60    4.40
   1  -7   3   16.90    3.20
   1   7  -3   13.10    2.70
   1  -7  -3   14.40    3.90
  -1  -7   3   14.30    3.30
  -1  -7   3   12.00    2.40
  -1  -7   3    8.30    3.80
   1  -7  -3   15.20    3.00
   1   7   3   11.10    2.70
   2  -7   3    6.10    2.60
  -2  -7  -3    4.30    4.90
   2   7  -3    5.70    2.50
  -2  -7  -3    3.60    3.60
   2  -7   3    2.50    2.40
   2  -7   3   10.90    3.90
  -2  -7   3    5.50    3.90
  -2  -7   3    7.80    3.50
   2   7   3    3.60    3.10
  -2  -7   3    5.70    5.70
  -2  -7   3    4.10    2.20
  -2   7  -3    7.40    2.20
   2  -7  -3    8.90    2.60
   2  -7  -3    4.70    2.80
  -3  -7  -3   21.60    3.30
   3  -7   3   26.60    3.80
   3  -7   3   18.40    5.20
  -3  -7  -3   22.80    4.20
   3  -7   3   24.30    3.40
   3  -7  -3   19.10    3.70
  -3   7  -3   32.00    4.30
  -3  -7   3   25.40   12.90
  -3  -7   3   21.80    4.90
   3  -7  -3   18.50    3.00
  -3  -7   3   10.30    4.50
  -3  -7   3   21.30    8.20
   4  -7   3   14.50    3.40
  -4  -7  -3   16.30    3.70
   4  -7   3   14.80    2.50
   4  -7   3   11.90    3.70
  -4   7  -3   17.10    2.60
  -4  -7   3   17.90    3.10
  -4  -7   3   16.70    3.20
   4  -7  -3   13.90    2.90
  -4  -7   3   17.50    7.60
   5  -7   3    0.30    2.20
  -5  -7  -3    3.00    2.60
   5   7  -3    3.00    2.10
   5  -7   3    5.40    2.40
   5   7   3    1.30    2.00
  -5   7  -3    1.60    1.90
  -5  -7   3    0.70    2.10
  -5  -7   3   -0.40    2.40
  -5  -7   3    1.80    2.10
  -5   7  -3    3.20    2.30
   6   7  -3   -1.00    1.80
  -6  -7  -3    0.90    1.40
  -6  -7  -3    1.10    1.80
  -6   7   3    4.00    3.10
  -6  -7   3    1.30    2.00
   6   7   3    1.60    2.00
  -6   7  -3   -2.00    2.20
  -6   7  -3    2.90    1.80
  -6  -7   3   -0.80    1.60
   7   7  -3    0.50    1.80
  -7   7   3   -0.70    1.50
  -7  -7  -3    0.80    0.80
  -7  -7  -3    0.90    1.30
  -7  -7  -3    0.90    1.40
  -7  -7   3    3.90    1.80
  -7  -7   3    0.60    1.40
   7   7   3    3.20    1.90
   8   7  -3    0.10    1.00
  -8  -7  -3    0.50    1.30
  -8  -7   3    0.50    0.90
   8   7   3   -0.80    1.20
  -8  -7   3    3.30    1.10
   0  -8   3   27.80    6.70
   0  -8  -3   27.90    6.80
   0  -8  -3   19.10    4.80
   0   8   3   40.20    5.70
   0  -8   3   33.40    4.70
   1  -8   3   68.89    6.20
  -1  -8  -3   56.49    6.60
  -1  -8  -3   50.29    7.90
   1  -8   3   56.79    7.30
   1  -8  -3   58.89    6.70
  -1  -8   3   49.30    8.70
  -1  -8   3   55.89    6.70
  -1  -8   3   66.69    5.40
   2  -8   3    2.90    4.70
  -2  -8  -3   -2.90    3.40
  -2  -8  -3   -0.90    3.10
   2  -8   3   -2.30    2.20
   2  -8  -3   -2.80    2.20
  -2  -8   3    1.10    8.70
  -2  -8   3    1.00    1.80
   2  -8  -3    1.00    2.70
  -2  -8   3   -0.20    5.70
  -3  -8  -3   10.90    3.90
   3  -8   3   11.50    5.60
   3  -8   3   13.00    3.10
   3  -8   3    6.40    2.00
  -3  -8  -3    3.80    2.50
   3  -8  -3    5.10    2.70
   3  -8  -3    5.10    2.40
  -3  -8   3   -1.60    2.50
  -3  -8   3   10.80    8.30
  -3   8  -3    6.80    2.00
  -3  -8   3    4.80    2.40
  -3  -8   3   13.90    8.50
   4  -8   3    6.90    2.40
   4  -8   3   10.20    5.00
  -4  -8  -3   10.20    3.10
  -4   8  -3   10.00    2.30
  -4  -8   3   10.40    3.40
  -4  -8   3    6.30    6.70
   4  -8  -3    4.50    2.40
  -4  -8   3    3.20    2.00
  -5  -8  -3    8.70    1.70
   5  -8   3    6.00    2.50
  -5  -8  -3    7.40    2.70
   5   8  -3   10.30    2.40
   5  -8   3    0.40    2.90
  -5  -8  -3    6.20    2.10
  -5   8  -3   10.60    2.30
   5   8   3    8.80    2.40
   5  -8  -3    3.60    2.10
  -5  -8   3    9.90    2.60
  -5  -8   3    3.00    1.80
  -5  -8   3    5.80    2.70
  -6  -8  -3    4.00    1.00
   6   8  -3    2.40    1.80
  -6  -8  -3    2.30    1.70
   6   8   3    6.80    2.30
  -6  -8   3    5.40    1.90
  -6  -8   3    1.10    1.50
   7   8  -3    3.00    1.90
  -7  -8  -3    2.40    1.20
  -7  -8   3    2.40    1.40
  -7  -8   3    3.50    1.90
   7   8   3    3.80    1.50
   0  -9  -3    2.50    4.50
   0  -9   3   -4.30    9.10
   0  -9   3   -0.10    3.90
   0  -9  -3    0.10    4.30
  -1  -9  -3    4.30    2.10
  -1  -9  -3    2.20    6.20
   1  -9   3    0.10    3.00
   1  -9   3    4.70    8.40
  -1  -9  -3    4.90    5.70
  -1  -9   3    4.50    5.90
   1  -9  -3   -0.70    3.50
  -1  -9   3    2.40    2.30
  -1  -9   3   12.40   10.50
   1  -9  -3   -1.90    3.20
   2  -9   3    7.70    8.90
   2  -9   3   17.70    5.70
  -2  -9  -3   14.00    6.90
  -2  -9  -3   17.30    4.90
  -2   9  -3   21.00    3.70
  -2  -9   3   22.90   11.40
  -2  -9   3    9.60   12.30
   2  -9  -3   13.80    4.20
   2  -9  -3   11.60    3.90
  -2  -9   3   13.20    2.90
   3  -9   3    0.80    2.50
  -3  -9   3    2.50   11.20
  -3   9  -3    0.70    1.70
  -3  -9   3   11.40    4.80
   3  -9  -3   -1.70    2.00
  -3  -9   3    0.30    1.90
   3  -9  -3    2.00    3.70
  -4  -9  -3    1.40    2.00
   4   9  -3   -3.50    1.60
  -4  -9  -3    1.10    2.30
   4  -9   3   -0.90    5.90
   4  -9   3    3.40    2.30
  -4  -9  -3    0.80    1.20
  -4  -9   3    1.20    1.60
   4  -9  -3   -0.70    1.60
  -4  -9   3    6.00    4.80
   4   9   3    0.00    1.60
  -4   9  -3    1.80    1.80
  -5  -9  -3    2.40    1.80
   5  -9   3    3.70    1.60
   5   9  -3    3.30    1.70
   5  -9   3    0.90    2.90
  -5  -9   3    0.30    1.40
   5   9   3    3.80    2.20
  -5  -9   3    2.40    1.90
   6   9  -3    0.80    1.50
  -6  -9  -3    1.50    1.30
   6   9   3    5.10    1.60
  -6  -9   3    1.50    1.40
   0 -10  -3   -0.40    4.20
   0 -10   3    1.30   10.10
   0 -10  -3    5.80    5.70
   0 -10   3    4.20    5.80
  -1 -10  -3   14.80    4.60
   1 -10   3   21.30    4.80
   1 -10   3   13.70    9.80
  -1 -10  -3   14.50    5.90
   1 -10  -3   12.70    5.20
  -1 -10   3   13.50   11.00
  -1 -10   3   15.90    7.40
   1 -10  -3   18.30    4.80
  -2 -10  -3    0.90    4.30
   2 -10   3    3.80    3.30
  -2 -10  -3    2.30    1.80
   2 -10   3    9.30    9.40
  -2 -10  -3    6.20    2.30
  -2 -10   3    4.60    7.80
   2 -10  -3    1.60    3.60
   2 -10  -3    4.20    3.30
  -2 -10   3    0.60    7.80
  -2 -10   3    5.20    2.20
  -3 -10  -3    2.90    2.60
   3 -10   3    1.70    2.90
  -3 -10  -3    5.00    1.90
   3 -10   3    5.30    7.90
  -3 -10   3    0.70    1.70
   3 -10  -3    1.20    2.00
   3 -10  -3   -0.70    3.00
  -3 -10   3    4.40    7.20
   4 -10   3   -0.40    4.40
  -4 -10  -3    0.30    1.10
   4 -10   3   -0.60    2.40
   4  10  -3    0.80    1.40
  -4 -10  -3    0.40    1.60
  -4 -10   3    1.90    1.50
   4  10   3   -1.00    1.50
  -4 -10   3   -0.10    2.40
   4 -10  -3    2.40    1.40
  -5 -10  -3   -0.30    1.30
   5  10  -3    3.50    1.20
   5  10   3    1.50    1.30
  -5 -10   3    0.90    1.30
   0 -11   3   -1.40    8.60
   0 -11  -3   -2.60    3.40
   0 -11  -3    1.40    2.20
   0 -11   3    0.00    6.50
  -1 -11  -3    3.30    2.50
   1 -11   3    1.30    6.90
  -1 -11  -3    3.00    4.20
   1 -11   3    4.30    8.60
  -1 -11   3    2.90    7.30
   1 -11  -3    1.70    2.10
   1 -11  -3   -1.40    3.30
   2 -11   3    9.20   11.20
  -2 -11  -3    1.70    2.10
   2 -11   3    0.30    4.20
   2 -11  -3    2.00    1.90
   2 -11  -3    4.60    2.50
  -2 -11   3    2.60    1.90
   3 -11   3   -1.20    3.10
   3 -11   3    1.10    3.90
  -3 -11  -3    2.20    1.50
  -3 -11  -3    1.30    1.30
   3  11  -3    0.50    1.40
   3 -11  -3    2.20    1.40
   3  11   3    0.60    1.20
  -3 -11   3    0.10    1.50
  -3 -11   3   -1.50    2.50
   4 -11   3   -0.50    0.90
  -4 -11  -3    0.30    1.40
   4  11   3   -0.40    1.20
  -4 -11   3   -0.20    1.10
  -4 -11   3    2.60    1.60
   0 -12  -3    1.10    1.10
   0 -12   3    1.20    2.80
   0 -12   3    0.20    4.00
   1 -12   3    2.40    2.70
   1 -12   3    0.90    4.20
  -1 -12   3    2.70    3.70
   1 -12  -3    0.80    1.10
  -1 -12   3    2.60    1.30
   2 -12   3    0.30    1.90
   2 -12   3   -0.40    2.60
  -2 -12  -3    1.90    1.10
   2  12   3    0.00    1.00
  -2 -12   3   -0.10    1.70
   0   0   4  305.67   16.90
   0   0  -4  318.97   15.60
   0   0  -4  296.67   16.80
   1   0   4  866.01   43.10
   1   0  -4  796.62   44.60
   1   0   4  949.11   45.60
  -1   0  -4  901.21   43.10
  -1   0   4  796.32   44.80
  -1   0  -4  975.50   45.60
  -1   0   4  816.12   43.10
  -2   0   4  115.69    8.90
  -2   0   4  115.59    6.20
   2   0  -4  117.19    8.80
   2   0   4  113.79    9.50
   2   0   4  117.99    6.40
  -2   0  -4  101.19    9.10
  -2   0  -4  109.49    6.30
  -3   0   4  866.41   51.79
  -3   0   4  918.71   44.40
  -3   0   4  864.51   49.00
   3   0   4  926.01   51.99
  -3   0  -4  879.01   49.80
  -4   0   4   43.50    3.10
   4   0   4   40.80    3.60
  -4   0   4   39.60    4.00
  -4   0  -4   47.50    9.10
  -4   0  -4   37.60    4.30
  -4   0   4   23.20    6.00
  -4   0  -4   22.00    6.30
  -5   0   4   13.10    2.40
   5   0   4   21.90    3.40
  -5   0   4   20.60    2.40
   5   0   4   20.40    3.00
  -5   0   4   12.30    3.60
   5   0  -4   15.00    2.80
   5   0  -4   19.20    3.20
  -5   0  -4   10.20    3.40
  -5   0  -4   20.80    3.20
   5   0   4   17.70    4.50
   6   0  -4   15.40    3.10
   6   0   4    9.30    2.80
  -6   0  -4    8.60    1.80
  -6   0   4    9.80    2.50
   6   0   4   12.00    6.40
   6   0   4    7.10    2.30
   6   0  -4    8.20    2.90
  -6   0  -4    9.50    2.90
   6   0  -4    4.70    2.40
  -6   0  -4    4.20    2.30
  -6   0   4    5.70    2.50
  -7   0   4  135.09    9.90
   7   0   4  132.59    9.70
  -7   0  -4  128.09    9.30
   7   0   4  130.89    8.20
  -7   0   4  138.29    9.10
  -7   0  -4  132.29    9.60
   7   0  -4  137.09    9.20
   7   0  -4  122.29    9.50
   8   0  -4   -0.20    2.00
  -8   0   4    2.20    1.80
   8   0   4    4.70    2.40
   8   0  -4    1.00    3.40
  -8   0  -4    0.70    1.80
  -8   0   4    1.40    2.60
  -9   0  -4   38.20    3.60
  -9   0   4   36.40    3.50
  -9   0   4   48.00    5.00
   9   0  -4   36.20    3.40
   9   0   4   28.10    3.50
  -9   0  -4   45.90    4.30
  -9   0   4   37.40    3.50
   0   1  -4  140.99    8.50
   0  -1  -4  149.99    8.10
   0  -1   4  150.08    7.80
   0  -1  -4  146.89    9.90
   0  -1   4  156.58    8.60
   0   1   4  165.08    8.20
   1  -1   4 1056.39   49.99
  -1  -1  -4 1001.30   48.10
   1   1  -4  891.21   48.60
  -1  -1  -4 1010.60   50.79
  -1   1   4  946.41   50.29
   1  -1   4  954.40   47.60
   1   1   4 1008.20   48.10
  -1   1  -4  944.81   49.70
   1   1   4 1017.10   50.69
  -1  -1   4  914.01   48.80
  -1   1  -4  953.20   47.60
  -1  -1   4  934.51   47.80
   1  -1  -4  945.51   50.19
  -2  -1  -4  155.48   11.20
  -2   1   4  140.69    7.50
  -2   1   4  139.19   10.70
   2  -1   4  123.79    7.00
  -2  -1  -4  129.89    7.70
   2  -1   4  132.19    7.30
   2  -1   4  146.99   10.90
  -2  -1   4  141.89    7.60
  -2   1  -4  140.79   10.70
   2   1   4  138.49   11.00
  -2  -1   4  135.69    9.70
  -2  -1   4  154.28   10.10
   2   1   4  149.69    7.90
   2  -1  -4  133.99   10.40
   3  -1   4  363.36   17.90
  -3   1   4  331.17   17.80
  -3   1   4  325.47   22.50
  -3  -1   4  330.27   21.60
  -3   1  -4  361.36   22.80
  -3  -1   4  351.66   18.00
   3  -1  -4  330.57   22.30
  -3   1  -4  350.96   23.00
  -3  -1   4  357.06   22.20
   3   1   4  362.76   18.50
  -3  -1   4  356.06   19.00
   3   1   4  380.86   23.90
  -4   1   4  502.85   33.80
  -4   1   4  532.35   26.10
  -4   1   4  545.35   35.60
   4  -1   4  534.15   26.30
  -4  -1  -4  489.65   26.80
  -4   1   4  514.85   27.10
  -4  -1  -4  499.15   33.80
  -4   1  -4  529.35   34.20
  -4  -1   4  522.45   26.30
  -4   1  -4  485.35   26.80
   4   1   4  518.15   26.90
  -5  -1  -4   27.70    2.90
   5  -1   4   30.20    3.20
   5  -1   4   26.00    3.80
  -5   1   4   33.00    2.70
  -5   1   4   31.70    3.90
   5   1  -4   28.10    3.80
  -5   1   4   28.10    3.50
   5  -1   4   27.50    3.40
   5  -1   4   31.20    3.20
  -5  -1  -4   31.70    4.00
   5   1  -4   26.20    3.80
   5  -1  -4   40.30    4.20
  -5  -1   4   33.20    3.00
  -5  -1   4   28.80    3.50
  -5   1  -4   31.40    3.90
   5   1   4   34.10    3.70
  -5   1  -4   29.30    3.70
  -5   1  -4   28.50    3.10
   5   1   4   31.80    4.00
   5  -1  -4   30.50    4.20
  -5  -1   4   28.20    3.20
  -6   1   4  133.99    8.50
  -6   1   4  121.29    8.80
  -6  -1  -4  115.89    8.50
  -6  -1  -4  106.59    6.80
   6   1  -4  122.99   10.00
   6   1  -4  120.99    8.50
   6  -1   4  124.39    8.60
   6  -1   4  128.89   10.10
  -6  -1  -4  115.59    8.30
   6  -1  -4  110.59    8.80
  -6  -1   4  123.79    7.90
   6  -1  -4  124.49    8.60
   6   1   4  113.99    8.20
  -6  -1   4  130.09    8.20
  -6  -1   4  123.99   11.90
  -6   1  -4  117.19    8.60
  -6   1  -4  123.69    8.20
   6   1   4  107.19   11.40
   6   1   4  116.59    8.60
   6  -1  -4  113.79    8.70
  -6   1  -4  127.09    8.50
  -6  -1   4  127.59    7.40
  -7   1   4   21.50    3.50
  -7  -1  -4   35.40    5.20
  -7   1   4   35.50    5.40
  -7  -1  -4   26.00    4.10
   7  -1   4   25.80    4.20
   7   1  -4   40.80    5.30
  -7   1  -4   36.80    4.60
  -7   1  -4   25.50    3.00
  -7  -1   4   25.10    3.50
   7  -1  -4   30.80    4.50
   7   1   4   36.60    4.40
  -7  -1   4   38.40    5.30
   7  -1  -4   27.90    4.00
  -7   1  -4   20.30    3.70
   7   1   4   31.00    4.60
  -8   1   4    8.40    2.20
   8   1  -4    7.10    2.60
  -8  -1  -4    8.10    2.60
  -8   1   4    8.40    3.30
  -8   1   4    8.60    2.40
   8  -1   4    6.30    2.70
  -8  -1  -4    6.40    2.30
  -8  -1   4   10.00    2.90
   8   1   4    9.00    2.00
   8  -1  -4   11.50    2.50
  -8   1  -4   12.40    2.80
  -8  -1   4    8.90    2.40
   8   1   4    5.70    2.60
  -9   1   4    1.60    1.40
  -9  -1  -4    0.60    1.30
   9   1  -4    1.00    1.40
  -9  -1  -4    3.90    1.90
  -9   1   4    2.50    1.70
   9  -1   4   -0.20    1.20
  -9   1  -4    1.30    1.30
  -9  -1   4    0.70    1.40
  -9   1  -4    2.20    1.80
   9   1   4    0.90    1.40
  -9  -1   4    1.40    1.20
  -9  -1   4    5.60    2.00
   0  -2  -4 1790.72   93.09
   0  -2   4 1771.62   90.19
   0   2   4 1836.32   90.49
   0  -2  -4 1941.91   90.59
   0   2   4 1820.62   94.49
  -1  -2  -4 2184.68   98.89
  -1   2   4 2233.78   99.09
  -1  -2  -4 1861.81   94.49
   1  -2   4 1806.22   93.79
   1   2   4 1886.11   94.49
   1  -2  -4 2216.28   98.89
  -1   2  -4 1742.23   95.49
   1  -2  -4 1788.52   94.29
  -1  -2   4 1596.24   93.99
  -1   2  -4 1816.32   96.39
  -2  -2  -4  243.58   17.00
  -2  -2  -4  234.48   13.40
  -2   2   4  251.37   17.00
  -2   2  -4  252.67   16.30
   2  -2  -4  276.87   17.10
   2   2   4  255.07   14.00
  -2   2  -4  239.78   15.90
  -2  -2   4  243.18   14.60
  -2  -2   4  257.87   14.90
   2   2   4  240.38   17.00
  -2  -2   4  254.37   13.10
  -3   2   4  578.34   29.80
  -3   2   4  602.94   28.90
  -3  -2  -4  572.54   34.90
  -3  -2   4  526.85   30.40
  -3   2  -4  596.34   34.80
   3   2   4  573.34   29.70
  -3  -2   4  562.34   32.90
  -3  -2   4  599.54   29.20
   3   2   4  568.94   35.20
   3  -2  -4  602.64   34.60
  -3   2  -4  554.04   34.00
   4   2  -4    2.50    1.50
  -4   2   4    5.10    1.20
  -4   2   4    1.80    3.20
   4  -2   4    3.20    1.80
  -4   2   4    5.10    1.90
  -4  -2  -4    5.80    2.00
  -4   2   4    2.30    6.40
  -4  -2  -4    3.00    3.80
   4  -2   4    5.00    1.60
  -4  -2   4    5.70    1.80
  -4  -2   4    2.30    1.30
  -4   2  -4    7.10    2.10
   4   2   4    3.50    1.70
   4   2   4   -0.90    5.60
   4   2   4    4.40    1.80
   4  -2  -4    3.40    1.70
  -4   2  -4    6.00    4.00
   5  -2   4   39.80    3.90
  -5  -2  -4   33.20    3.30
  -5  -2  -4   44.10    4.50
   5   2  -4   44.40    4.80
  -5   2   4   44.90    4.60
   5   2  -4   45.20    4.20
  -5   2   4   39.30    4.30
   5  -2   4   47.60    4.60
  -5  -2   4   40.20    3.90
   5   2   4   45.90    4.70
  -5  -2   4   44.00    3.80
   5  -2  -4   44.70    4.40
   5   2   4   37.00    4.50
  -5   2  -4   35.60    3.70
  -5  -2   4   44.90    3.90
  -5   2  -4   57.49    5.60
   5  -2  -4   40.50    4.90
  -5   2  -4   51.59    6.40
  -5  -2   4   34.20    5.40
   5   2   4   46.60    4.30
   6  -2   4   -0.70    2.20
  -6  -2  -4   -1.10    1.80
  -6   2   4   -1.00    1.90
  -6  -2  -4   -1.30    1.90
   6   2  -4   -1.20    2.80
  -6   2   4   -0.20    1.90
   6   2   4    0.20    2.00
   6  -2  -4    1.40    2.30
  -6  -2   4    1.40    1.70
  -6   2  -4    0.70    1.60
   6   2   4   -0.50    2.10
  -6  -2   4   -1.90    2.10
  -6   2  -4   -0.60    1.60
  -6   2  -4    1.10    1.90
   6  -2  -4   -0.40    2.10
  -6  -2   4    0.40    1.60
   6  -2  -4   -2.70    3.20
   7   2  -4  186.08   11.20
  -7   2   4  170.58   11.60
   7  -2   4  158.98   11.10
  -7  -2  -4  168.48   11.10
  -7   2   4  178.78   11.20
  -7  -2   4  182.68   11.70
   7   2   4  170.48   10.70
  -7   2  -4  171.58   11.30
   7  -2  -4  157.68   11.70
  -7   2  -4  155.98    9.90
  -7   2  -4  169.38   11.50
   7  -2  -4  179.38   10.60
   7   2   4  159.28   12.30
  -7  -2   4  166.88   11.40
  -8   2   4    6.50    2.70
  -8  -2  -4    4.60    2.30
  -8  -2  -4    7.90    2.30
  -8   2   4    1.80    1.90
   8   2  -4    2.90    2.30
  -8   2   4   11.80    2.50
   8  -2   4    6.50    2.60
   8   2   4    7.10    3.30
  -8   2  -4    4.00    2.20
  -8   2  -4    7.10    2.90
  -8  -2   4    7.30    2.80
  -8  -2   4    2.50    1.60
   8   2   4    8.60    2.00
   9   2  -4    8.60    3.00
   9  -2   4    6.30    1.80
  -9   2   4    6.20    1.70
  -9   2   4   16.00    2.80
  -9  -2  -4    9.10    1.90
  -9   2  -4   10.90    2.40
  -9  -2   4    7.80    1.50
  -9   2  -4    8.50    1.60
  -9  -2   4    7.90    1.40
  -9  -2   4   10.60    1.90
   9   2   4    1.80    1.60
   0   3  -4  174.48    9.10
   0   3   4  160.08   14.10
   0  -3  -4  170.48   12.80
   0  -3  -4  182.38    9.70
   0  -3   4  166.18    9.20
   0   3   4  177.88    9.60
   1  -3   4   67.69    3.60
  -1   3   4   63.59    7.20
  -1  -3  -4   59.79    4.40
   1   3  -4   70.09    5.20
  -1  -3  -4   62.49    7.00
  -1   3  -4   63.69    5.40
  -1   3  -4   61.39    5.40
   1   3   4   63.39    7.00
   1  -3  -4   61.39    6.80
  -1  -3   4   61.89    4.10
   1  -3  -4   59.79    4.90
   1   3   4   62.19    4.50
  -2   3   4  215.78   16.00
   2   3  -4  229.38   12.00
  -2  -3  -4  213.58   16.00
  -2  -3   4  215.78   11.50
  -2   3  -4  216.78   14.80
   2  -3  -4  215.58   15.90
  -2  -3   4  199.08   12.30
  -2  -3   4  215.68   12.60
   2   3   4  221.98   17.80
   2  -3  -4  187.68   11.70
   2   3   4  229.78   12.10
   3   3  -4  137.19    8.50
  -3  -3  -4  120.59   12.60
  -3   3   4  134.59    7.30
  -3   3   4  123.09   12.70
  -3   3   4  134.19    8.30
   3  -3  -4  148.59   13.50
  -3  -3   4  120.89   10.40
   3   3   4  148.49   14.20
   3   3   4  148.49    9.00
  -3   3  -4  125.09   12.20
  -3  -3   4  136.19    7.80
   4  -3   4  268.17   14.50
  -4   3   4  255.67   14.20
  -4  -3  -4  236.68   13.90
  -4   3   4  235.08   22.70
   4   3  -4  259.67   15.00
   4  -3   4  267.97   14.30
  -4   3   4  253.47   12.80
  -4  -3  -4  233.98   13.70
  -4   3   4  248.78   14.20
  -4  -3   4  240.98   14.00
  -4  -3   4  240.38   13.40
  -4  -3   4  257.37   13.60
   4   3   4  230.38   14.50
  -4   3  -4  229.58   13.90
  -4   3  -4  249.38   13.50
  -4  -3   4  242.68   13.90
   4   3   4  240.28   13.80
   4  -3  -4  274.97   14.50
   5   3  -4   23.50    3.30
   5  -3   4   25.50    3.80
   5  -3   4   26.20    3.10
   5   3  -4   18.60    3.40
  -5   3   4   25.80    4.10
  -5   3   4   21.40    3.40
  -5  -3  -4   20.60    3.90
   5  -3  -4   28.80    4.20
  -5   3  -4   29.70    4.10
   5   3   4   21.30    3.20
   5   3   4   11.80    3.20
  -5  -3   4   23.90    3.90
  -5   3  -4   27.60    3.30
   5  -3  -4   28.40    3.50
  -5  -3   4   22.60    3.00
  -5  -3   4   22.30    3.30
  -5   3  -4   25.60    3.90
  -5  -3   4   20.10    2.80
   5   3   4   21.10    4.00
  -6   3   4   65.79    6.20
  -6   3   4   67.89    5.90
   6   3  -4   53.99    5.60
  -6  -3  -4   51.79    5.80
  -6  -3  -4   56.49    5.50
   6  -3   4   69.59    6.00
  -6  -3   4   58.69    5.60
  -6   3  -4   64.59    5.10
   6  -3  -4   65.49    6.40
   6   3   4   53.29    6.80
  -6   3  -4   65.69    6.20
  -6  -3   4   54.49    5.30
   6  -3  -4   69.69    5.50
   6   3   4   57.59    5.50
  -6   3  -4   63.19    7.30
   7   3  -4   27.10    4.10
  -7   3   4   36.70    4.50
   7  -3   4   18.60    4.00
  -7  -3  -4   27.70    3.90
   7  -3   4   30.50    4.50
  -7  -3  -4   29.30    4.50
  -7  -3  -4   21.60    3.50
  -7   3   4   26.20    4.40
   7   3   4   22.00    5.50
  -7  -3   4   22.70    3.70
  -7  -3   4   27.50    4.30
  -7   3  -4   32.20    4.40
  -7  -3   4   31.20    3.90
   7  -3  -4   25.50    4.10
  -7   3  -4   34.80    5.40
  -7   3  -4   32.50    4.40
   7   3   4   24.90    3.70
   7  -3  -4   33.30    4.90
  -8  -3  -4    1.50    1.70
   8   3  -4    3.40    2.30
  -8   3   4   -1.30    1.50
  -8  -3  -4    3.70    3.40
   8  -3   4   -1.80    1.70
  -8   3   4    0.70    2.30
  -8   3  -4    0.60    2.20
   8   3   4    3.30    2.00
  -8  -3   4    0.80    1.30
  -8  -3   4    0.20    1.50
  -8  -3   4    0.90    1.90
   8   3   4   -0.30    1.80
  -8   3  -4   -1.00    1.90
  -9   3   4    9.40    2.40
  -9  -3  -4    2.30    1.10
  -9   3   4    1.90    1.20
   9  -3   4    0.50    1.10
   9   3  -4    4.00    1.50
  -9  -3   4    3.80    1.50
  -9   3  -4    5.20    2.30
  -9  -3   4    2.80    0.90
  -9   3  -4    3.90    1.40
   0  -4  -4  381.06   23.40
   0   4  -4  336.57   18.40
   0  -4   4  359.86   18.50
   0   4   4  376.86   19.10
   0   4   4  360.36   23.30
   1   4  -4  104.19    7.00
  -1   4   4  104.49    6.50
  -1   4   4  107.09   10.50
   1  -4   4  103.69    5.70
   1   4   4  107.09    6.70
   1   4   4  117.59   10.50
   1  -4  -4  118.99   10.50
  -1   4  -4   76.09    9.70
  -1   4  -4   99.59    7.50
  -1  -4   4  105.89    6.20
   2   4  -4    7.10    2.10
  -2   4   4   13.40    4.80
  -2  -4  -4   10.30    4.40
   2  -4  -4    8.90    4.70
   2   4   4    5.80    1.80
  -2  -4   4    6.10    1.60
  -2   4  -4    7.60    3.30
   2   4   4    8.10    4.20
  -3  -4  -4   59.49   10.50
  -3   4   4   61.59   10.20
  -3   4   4   64.49    4.80
   3  -4   4   69.19    5.10
  -3  -4  -4   62.79    5.40
   3  -4   4   67.89    6.10
   3   4  -4   69.49    5.70
  -3   4   4   69.69    5.10
   3   4   4   61.89   12.00
   3   4   4   59.89    5.40
  -3  -4   4   66.99    4.80
  -3  -4   4   58.49    7.30
   3  -4  -4   56.29   13.00
  -3   4  -4   69.59    5.30
  -3   4  -4   60.09   11.90
  -3  -4   4   70.49    5.10
   4  -4   4   45.90    4.10
  -4  -4  -4   42.50    4.80
  -4   4   4   41.80    3.80
  -4   4   4   40.40    4.50
   4   4  -4   37.70    4.70
   4  -4   4   39.60    4.00
  -4   4   4   43.90    4.70
   4  -4   4   33.30    4.20
  -4   4   4   39.30    3.20
  -4  -4   4   37.30    4.50
   4   4   4   36.80    4.00
  -4  -4   4   41.80    3.30
   4   4   4   38.60    5.10
  -4  -4   4   45.30    5.60
   4  -4  -4   44.20    3.80
  -4  -4   4   41.80    4.20
  -4   4  -4   36.90    4.00
  -4  -4   4   39.90    3.80
  -4   4  -4   36.40    3.70
   4  -4  -4   42.90    4.70
   5   4  -4   19.70    4.40
  -5   4   4   19.80    3.50
   5  -4   4   21.00    3.40
  -5   4   4   16.20    3.10
   5  -4   4   22.20    3.60
   5  -4   4   21.70    3.00
   5   4  -4   25.20    3.40
   5   4   4   18.70    3.80
   5   4   4   25.30    3.60
  -5   4  -4   12.60    2.60
   5  -4  -4   16.30    2.50
  -5  -4   4   22.50    3.00
  -5  -4   4   21.00    4.40
   5  -4  -4   19.20    3.80
  -5  -4   4   15.90    2.70
  -5  -4   4   18.30    3.90
  -5  -4   4   22.40    3.50
  -5   4  -4   25.40    3.20
  -6   4   4   38.30    4.80
   6  -4   4   42.70    4.90
   6   4  -4   29.90    4.20
   6  -4   4   36.90    4.40
  -6   4   4   38.50    5.20
  -6  -4   4   35.30    4.30
  -6  -4   4   33.40    3.60
   6   4   4   33.20    4.60
  -6   4  -4   39.30    5.00
  -6  -4   4   33.40    5.20
   6   4   4   12.60    5.70
  -6   4  -4   38.10    5.10
  -6   4  -4   37.80    4.20
   7   4  -4   -1.40    2.30
  -7  -4  -4    0.20    1.70
  -7   4   4    0.30    2.10
  -7   4   4    0.10    2.20
   7  -4   4   -2.30    2.00
  -7  -4  -4    1.10    1.80
  -7   4  -4    1.00    1.60
  -7  -4   4   -1.90    1.30
  -7  -4   4    2.50    1.90
   7   4   4   -0.60    2.10
  -7   4  -4    2.10    2.60
  -7   4  -4   -1.40    2.10
  -8   4   4    5.00    2.40
  -8   4   4    1.70    2.00
   8   4  -4    2.70    2.20
   8  -4   4    2.60    2.10
  -8  -4  -4    3.60    1.70
  -8  -4  -4    3.90    1.40
  -8   4  -4    3.70    2.30
  -8  -4   4    2.70    1.20
  -8  -4   4    3.00    1.70
  -8   4  -4    1.40    1.60
  -8  -4   4    2.70    1.60
  -9   4   4    1.90    1.00
  -9  -4  -4    5.50    1.10
   9   4  -4    5.40    1.40
  -9   4  -4    9.40    2.30
  -9  -4   4    7.10    1.60
   0  -5  -4   21.70    5.80
   0   5  -4   31.30    2.90
   0   5   4   24.60    6.20
   0  -5   4   30.60    2.70
   0   5   4   31.40    3.20
   1   5  -4   72.29    5.20
  -1   5   4   82.79    9.90
   1   5   4   68.99    9.70
  -1   5  -4   75.39    6.40
   1   5   4   70.39    5.50
   1  -5  -4   86.59   10.40
  -1  -5   4   69.19    4.80
  -2  -5  -4  176.18   11.10
   2  -5   4  190.08   11.30
   2  -5   4  188.48   10.90
  -2   5   4  201.98   23.30
   2   5  -4  187.98   11.30
  -2  -5   4  197.18   11.00
   2  -5  -4  196.08   20.20
  -2   5  -4  178.88   10.70
  -2  -5   4  194.28   10.60
  -2   5  -4  177.48   14.30
   2   5   4  185.48   11.40
  -3   5   4   23.90    3.50
  -3  -5  -4   29.50    3.90
  -3   5   4   25.30    2.40
  -3   5   4   28.10    3.40
   3  -5   4   22.90    3.00
   3  -5   4   28.30    3.10
   3  -5   4   20.60    3.30
   3  -5   4   27.90    3.30
  -3  -5   4   22.70    3.00
  -3  -5   4   21.80    4.50
  -3   5  -4   23.80    3.40
   3   5   4   26.80    4.10
   3  -5  -4   20.90    3.40
  -3  -5   4   28.00    3.70
  -4   5   4   84.29    5.90
  -4   5   4   76.39    6.40
   4  -5   4   80.69    6.10
   4   5  -4   87.09    7.60
  -4  -5  -4   94.39    6.70
   4  -5   4   83.89    6.40
   4  -5   4   76.79    6.30
  -4   5   4   87.89    6.40
   4  -5   4   83.99    6.30
  -4  -5   4   74.19    6.40
  -4  -5   4   69.39    7.40
  -4   5  -4   89.99    6.00
  -4   5  -4   78.79    6.20
   4  -5  -4   90.19    6.40
  -4  -5   4   75.99    5.10
  -4  -5   4   83.19    5.90
  -4  -5   4   77.39    6.30
   4   5   4   79.29    5.90
   4   5   4   87.99    8.80
   5  -5   4   38.90    4.60
   5  -5   4   32.70    4.30
   5  -5   4   37.20    3.90
  -5   5   4   34.70    5.10
  -5  -5  -4   37.20    4.50
  -5   5   4   34.30    6.60
   5   5  -4   42.50    4.50
  -5  -5   4   35.10    3.30
  -5  -5   4   33.30    4.30
  -5  -5   4   37.30    4.40
  -5   5  -4   35.70    5.10
   5   5   4   32.20    4.30
  -5   5  -4   30.60    4.10
   6   5  -4  118.69    8.60
   6  -5   4  123.09    8.80
  -6   5   4  126.69    9.20
  -6  -5  -4  122.59    8.30
  -6   5   4  114.49    9.00
   6  -5   4  109.79    8.70
  -6  -5   4  122.79    7.50
  -6  -5   4  116.29    8.50
  -6   5  -4  129.59    8.10
   6   5   4  121.49    8.30
  -6   5  -4  124.39    9.10
   7   5  -4    2.60    2.20
  -7  -5  -4   -0.40    1.60
  -7   5   4    1.30    1.80
  -7  -5  -4    2.00    1.80
   7  -5   4    2.20    2.10
  -7   5   4    2.50    2.50
  -7   5  -4    1.40    1.60
   7   5   4    1.70    2.20
  -7   5  -4    1.20    2.20
  -7  -5   4    1.10    1.10
  -7  -5   4   -0.20    1.50
  -7  -5   4    3.90    2.10
  -8  -5  -4    2.40    1.30
  -8  -5  -4    0.50    1.20
  -8   5   4    3.30    1.90
  -8   5   4    0.20    1.20
   8   5  -4    2.10    1.90
  -8   5  -4    0.20    1.80
  -8  -5   4    1.30    1.30
   8   5   4    1.40    1.90
  -8  -5   4    1.80    1.70
   0   6  -4   13.40    2.10
   0  -6   4   14.30    3.40
   0  -6  -4   17.70    3.30
   0   6   4   15.70    2.80
   0  -6   4   16.60    3.00
   0  -6  -4   12.00    3.50
  -1  -6  -4   63.09    5.50
   1  -6   4   66.09    5.30
   1   6  -4   54.79    4.60
  -1  -6  -4   47.20    5.00
   1  -6   4   61.69    5.00
   1   6   4   50.59    4.90
  -1  -6   4   57.29    4.90
   1  -6  -4   52.19    4.80
  -1  -6   4   52.69    4.80
  -1  -6   4   50.79    4.70
   1  -6  -4   61.19    5.60
   2  -6   4   23.90    3.10
  -2  -6  -4   28.50    3.90
   2  -6   4   30.40    4.00
  -2  -6  -4   30.90    4.20
   2   6  -4   23.60    3.80
   2  -6   4   31.90    4.10
   2  -6  -4   18.10    3.70
   2  -6  -4   25.10    3.90
  -2  -6   4   22.20    3.20
  -2  -6   4   27.50    3.60
  -2  -6   4   14.90    4.80
   2   6   4   31.70    4.10
  -2  -6   4   26.00    3.90
   3  -6   4   70.49    6.00
  -3  -6  -4   73.19    5.70
  -3  -6  -4   82.39    6.30
  -3   6   4   64.29    7.40
   3   6  -4   77.19    6.90
   3  -6   4   70.89    6.30
   3  -6   4   75.29    6.30
  -3  -6   4   69.89    8.20
   3   6   4   88.99    7.30
   3  -6  -4   77.59    6.30
  -3  -6   4   79.39    6.30
  -3   6  -4   71.89    5.60
  -3  -6   4   71.59    5.90
  -3   6  -4   69.39    9.00
   4  -6   4    6.60    4.40
   4  -6   4    6.30    2.60
  -4  -6  -4    6.00    3.00
   4  -6   4    2.30    2.70
  -4   6   4    5.60    2.40
  -4   6   4    6.00    2.30
  -4   6  -4    7.30    2.10
  -4  -6   4    6.20    1.70
  -4   6  -4    4.30    2.20
  -4  -6   4    2.40    5.90
   4  -6  -4    9.80    4.90
  -4  -6   4    7.70    2.60
  -4  -6   4    7.50    2.70
  -5   6   4   12.60    3.10
   5  -6   4    8.00    2.70
   5  -6   4   20.50    3.50
  -5   6   4   16.40    3.50
   5  -6   4   14.30    2.60
   5  -6   4   16.10    3.40
   5   6  -4   15.50    2.80
  -5  -6   4    8.10    1.50
  -5   6  -4   13.70    2.50
   5   6   4   16.30    2.90
  -5  -6   4    9.20    2.40
  -5  -6   4    8.90    3.00
  -5   6  -4   13.00    3.30
  -5  -6   4   15.90    3.40
  -6   6   4   15.30    3.40
   6  -6   4   13.50    2.90
   6  -6   4    9.20    4.30
   6   6  -4   17.00    3.00
  -6  -6  -4   13.40    2.80
  -6  -6   4   17.40    3.90
  -6   6  -4   22.90    4.40
   6   6   4   17.10    4.20
  -6   6  -4   18.30    3.40
  -6  -6   4    9.60    2.40
  -7  -6  -4   -0.30    1.50
  -7   6   4    3.20    1.90
   7   6  -4   -0.60    1.80
  -7   6   4    3.30    2.10
  -7  -6  -4    1.60    1.40
  -7   6  -4    1.50    1.50
  -7  -6   4    1.40    1.70
   7   6   4    0.50    1.90
  -7  -6   4    1.10    1.90
  -7   6  -4   -0.40    1.90
  -8  -6  -4    1.00    1.00
  -8  -6  -4    4.10    1.00
  -8   6   4    4.30    1.40
  -8  -6  -4    1.50    1.00
   8   6  -4    4.40    1.60
  -8  -6   4    3.40    1.60
  -8  -6   4    1.30    1.30
   0  -7   4    4.80    2.90
   0  -7  -4    0.80    2.90
   0  -7   4   12.30    3.40
   0  -7   4    6.50    2.60
   0   7   4    3.30    2.10
   0  -7  -4    6.40    2.80
  -1  -7  -4   40.40    4.90
   1  -7   4   33.90    3.90
  -1  -7  -4   42.60    6.20
   1  -7   4   40.90    4.30
   1  -7   4   40.20    4.80
   1   7  -4   31.80    4.00
  -1  -7   4   31.40    4.80
   1  -7  -4   35.90    4.50
   1   7   4   41.10    4.60
   1  -7  -4   41.10    5.10
  -1  -7   4   39.30    4.20
  -1  -7   4   35.00    4.60
  -2  -7  -4   38.90    4.60
   2  -7   4   40.70    4.60
   2  -7   4   42.50    5.40
   2   7  -4   43.30    5.30
  -2  -7  -4   38.90    5.00
   2  -7   4   44.00    6.30
   2  -7  -4   47.30    4.50
   2   7   4   36.80    5.20
  -2  -7   4   41.50    7.60
  -2  -7   4   41.20    4.70
  -2  -7   4   40.40    4.50
  -2  -7   4   43.30    6.50
  -3  -7  -4    2.90    2.60
   3  -7   4   11.00    3.10
  -3  -7  -4    8.50    3.00
   3  -7   4   11.00    3.10
   3  -7   4   11.60    3.50
  -3   7  -4   10.90    2.40
  -3  -7   4    5.30    2.60
  -3  -7   4   11.90    2.50
  -3  -7   4    6.20   10.70
  -3  -7   4   11.60    6.60
   3  -7  -4    1.60    2.50
   4  -7   4   15.50    4.00
  -4  -7  -4   17.70    3.50
   4  -7   4   22.90    3.70
   4  -7   4   18.60    2.80
  -4   7   4   11.90    4.40
  -4   7  -4   14.70    2.40
  -4  -7   4   11.00    2.50
  -4  -7   4   17.90    8.00
  -4  -7   4   16.20    2.70
   4  -7  -4   15.40    3.20
   5  -7   4   23.40    4.10
  -5  -7  -4   16.50    3.40
  -5   7   4   17.60    3.50
  -5  -7   4   21.50    5.70
  -5   7  -4   23.40    3.20
  -5  -7   4   34.60    4.10
  -5   7  -4   27.50    4.40
  -5  -7   4   27.40    3.80
   5   7   4   22.20    3.40
   5  -7  -4   17.10    3.00
  -6  -7  -4    3.30    1.90
   6  -7   4    5.50    2.20
  -6   7   4    2.00    2.40
   6   7  -4    4.20    2.20
  -6  -7  -4    6.20    1.80
   6   7   4    5.50    2.20
  -6   7  -4    2.10    1.80
  -6  -7   4    3.70    2.30
  -6   7  -4    4.30    2.80
  -6  -7   4    2.10    1.80
  -7  -7  -4   15.30    2.20
  -7  -7  -4   15.60    1.90
  -7  -7  -4   20.50    2.50
   7   7  -4   18.70    2.70
  -7  -7   4   16.90    2.50
  -7  -7   4   10.90    2.20
   7   7   4   21.10    2.90
   8   7  -4    1.30    1.00
   8   7   4    1.00    1.00
  -8  -7   4    0.90    1.00
   0  -8   4   64.89    8.00
   0  -8  -4   69.59    6.40
   0   8   4   88.89   10.90
   0  -8   4   68.39    6.20
   0  -8  -4   65.59    6.60
  -1  -8  -4    4.60    3.20
  -1  -8  -4    5.30    3.40
   1  -8   4    6.80    4.30
   1  -8   4    8.40    3.30
   1  -8  -4    5.10    3.10
   1  -8  -4    5.80    2.90
  -1  -8   4   11.40    2.60
  -1  -8   4   -2.00    6.00
  -1  -8   4    8.20    3.80
  -2  -8  -4   14.30    3.90
   2  -8   4   26.10    4.00
  -2  -8  -4   20.90    3.70
   2  -8   4   11.80    5.00
   2  -8   4   19.90    3.80
   2  -8  -4   22.70    3.90
  -2   8  -4   23.00    3.60
  -2  -8   4   13.70    2.90
   2  -8  -4   18.10    3.40
  -2  -8   4   18.00    9.50
  -2  -8   4   22.20    6.20
   3  -8   4    1.40    4.60
   3  -8   4   -2.20    1.90
   3  -8   4    1.60    2.60
  -3  -8  -4    1.30    2.80
  -3  -8   4   -2.90    2.20
  -3  -8   4    0.30    8.70
   3  -8  -4    3.10    2.20
   3  -8  -4    0.20    2.40
  -3   8  -4    0.40    1.60
  -3  -8   4    6.60    8.70
  -3  -8   4    5.00    2.10
   4  -8   4   14.00    5.90
  -4  -8  -4   24.10    3.90
   4   8  -4   14.10    3.10
   4  -8   4   20.90    3.70
  -4  -8   4   27.90    4.10
   4  -8  -4   14.00    3.20
  -4  -8   4   31.40    5.70
  -4  -8   4   15.10    7.70
   4   8   4   27.70    3.80
  -4   8  -4   26.00    3.70
   5  -8   4    1.50    3.70
   5   8  -4    5.70    2.40
  -5  -8  -4    5.20    1.60
   5  -8   4    6.00    2.30
  -5   8  -4    6.00    2.10
  -5  -8   4    4.00    2.50
   5   8   4    5.90    2.20
  -5  -8   4    3.50    1.80
  -5  -8   4    8.20    2.30
   6   8  -4    1.00    1.60
  -6  -8  -4   -0.90    0.90
  -6  -8  -4    1.00    2.00
  -6  -8   4   -0.70    1.60
  -6  -8   4   -0.60    1.40
  -6   8  -4    2.00    2.10
   7   8  -4    2.00    1.30
  -7  -8  -4    1.40    1.30
  -7  -8   4    0.90    1.60
  -7  -8   4    0.20    1.10
   7   8   4    0.80    1.30
   0  -9  -4   48.70    6.00
   0  -9  -4   63.39    6.40
   0  -9   4   72.69    7.10
   0  -9   4   54.29   10.10
  -1  -9  -4    7.00    3.30
   1  -9   4    9.60    3.50
   1  -9   4    7.70    7.80
  -1  -9  -4    5.30    3.90
   1  -9  -4    5.70    3.10
  -1  -9   4    6.80    2.50
  -1  -9   4    5.00    5.00
  -1  -9   4    0.50   10.40
   1  -9  -4    7.30    3.20
   2  -9   4   31.80    4.90
  -2  -9  -4   28.10    4.00
  -2  -9  -4   26.10    5.30
   2  -9   4   20.70    8.20
  -2   9  -4   35.80    4.20
   2  -9  -4   24.30    4.30
  -2  -9   4    8.80   10.80
  -2  -9   4   22.10    3.40
   2  -9  -4   25.80    3.70
  -2  -9   4   24.10    8.50
  -3  -9  -4    3.50    3.10
   3  -9   4    1.50    7.30
   3  -9   4    2.30    2.70
   3  -9  -4    0.90    2.10
  -3  -9   4    3.10    2.00
  -3   9  -4    1.90    1.70
  -3  -9   4    6.10    8.80
   3  -9  -4    5.00    2.50
   4  -9   4   -1.60    5.80
   4  -9   4   -0.70    2.00
  -4  -9  -4   -1.20    1.70
   4   9  -4    4.90    2.80
  -4  -9  -4    0.40    2.10
   4  -9  -4    1.40    1.60
  -4   9  -4   -0.20    1.60
  -4  -9   4    0.40    1.80
   4   9   4    1.80    1.80
  -4  -9   4   -3.20    5.20
   5  -9   4    5.20    1.80
   5  -9   4    5.80    3.70
   5   9  -4   10.10    2.00
  -5  -9  -4    2.90    2.00
  -5  -9   4    6.70    2.10
  -5  -9   4    5.30    2.20
  -6  -9  -4   -0.30    0.90
   6   9  -4    2.00    1.30
  -6  -9   4    0.90    1.20
   6   9   4    0.70    1.40
   0 -10   4   34.00    6.00
   0 -10  -4   33.10    4.80
   0 -10  -4   29.10    5.50
   0 -10   4    8.00   10.40
  -1 -10  -4    7.00    4.60
   1 -10   4    4.10    9.50
   1 -10   4   11.30    4.00
  -1 -10  -4   10.40    3.50
  -1 -10   4   11.10   11.70
   1 -10  -4    6.50    3.00
  -1 -10   4   10.50    7.40
   1 -10  -4    9.50    4.20
   2 -10   4    0.30    2.90
  -2 -10  -4    3.80    1.80
  -2 -10  -4   -0.70    3.20
   2 -10   4    2.80    9.20
  -2 -10   4   -0.40    1.50
  -2 -10   4    1.30    8.30
   2 -10  -4   -0.40    2.50
  -2 -10   4   -1.30    8.20
   2 -10  -4   -1.00    2.10
  -3 -10  -4    1.80    1.70
   3 -10   4    6.50    8.20
  -3 -10  -4    1.80    1.90
   3 -10   4    1.30    2.70
   3 -10  -4    0.00    1.70
  -3 -10   4   -1.40    9.20
   4  10  -4    2.00    1.50
  -4 -10  -4    0.20    1.20
   4 -10   4   -0.80    4.90
   4 -10   4    2.80    2.00
  -4 -10  -4    0.20    1.70
   4  10   4    0.40    1.50
  -4 -10   4    1.60    1.50
  -4 -10   4    2.70    2.40
  -5 -10  -4   -0.50    1.00
   5  10  -4    1.40    1.50
   5  10   4    0.70    1.20
  -5 -10   4   -0.60    0.90
   0 -11  -4   -0.70    2.80
   0 -11   4    5.60    6.60
   0 -11  -4   -0.80    1.90
   0 -11   4    0.50   10.30
  -1 -11  -4    4.80    2.70
   1 -11   4   -3.90    8.80
   1 -11  -4    4.30    2.00
  -1 -11   4    5.50    7.20
  -1 -11   4   -1.30    8.20
   1 -11  -4    4.60    2.50
   2 -11   4    2.90    4.10
  -2 -11  -4    2.60    1.70
   2 -11   4    3.90    8.60
  -2 -11   4   15.00    7.10
   2 -11  -4    1.10    2.00
  -2 -11   4    1.70    2.10
   2 -11  -4    2.70    1.70
  -3 -11  -4    1.90    1.50
  -3 -11  -4    2.60    1.60
   3 -11   4    2.10    4.60
   3 -11   4    2.50    3.20
   3  11   4    4.30    1.50
  -3 -11   4    3.80    2.20
   4 -11   4    0.30    1.30
  -4 -11  -4   -0.70    1.00
   4  11   4    0.20    1.20
  -4 -11   4    2.20    1.10
   0 -12   4   -0.20    2.60
   0 -12   4   -0.80    4.00
   0 -12  -4    0.20    0.80
  -1 -12  -4    1.60    1.10
   1 -12   4   -1.00    2.70
  -1 -12   4    1.30    3.80
  -1 -12   4   -0.30    1.20
   2 -12   4    2.90    2.90
   2 -12   4    2.30    2.20
   2  12   4    3.50    1.20
  -2 -12   4    1.20    1.70
   0   0  -5   -0.10    0.80
   0   0   5   -0.40    1.10
   0   0  -5   -0.20    1.20
  -1   0  -5  467.25   23.70
  -1   0   5  397.46   22.70
   1   0  -5  333.27   24.80
   1   0   5  424.66   23.20
  -1   0  -5  426.76   20.70
   1   0   5  416.16   20.70
  -1   0   5  402.76   20.70
  -2   0  -5    4.70    1.10
  -2   0  -5    2.40    2.40
   2   0   5    2.20    2.50
  -2   0   5    8.00    2.90
   2   0  -5    6.50    2.40
   2   0   5    4.20    1.20
  -2   0   5    5.00    1.20
   3   0   5  350.86   24.10
   3   0   5  385.96   18.80
  -3   0   5  338.57   22.80
  -3   0   5  359.56   18.50
  -4   0  -5   75.09    6.00
   4   0   5   79.59    5.40
  -4   0   5   87.09    5.00
  -4   0   5   77.99   11.60
  -4   0   5   73.39    6.00
   5   0   5  138.79    9.00
   5   0  -5  138.59    8.70
  -5   0   5  145.39    7.90
  -5   0  -5  128.59    8.80
  -5   0   5  145.99    9.30
   5   0   5  136.99    8.40
  -5   0  -5  125.09    8.00
   5   0   5  132.19    8.10
   5   0   5  131.39    8.60
  -5   0  -5  137.19    8.70
  -5   0   5  138.59    8.60
  -6   0  -5   59.19    4.50
   6   0   5   63.89    6.00
   6   0  -5   42.50    5.90
   6   0  -5   64.39    8.30
  -6   0  -5   64.29    6.00
  -6   0   5   60.79    6.00
   6   0   5   63.39    5.10
  -6   0  -5   67.39    5.70
  -6   0   5   61.89    5.70
  -7   0   5   -0.20    1.80
   7   0  -5    5.80    2.80
  -7   0  -5    8.80    2.80
  -7   0   5    6.80    3.10
  -7   0  -5    3.60    1.40
  -7   0  -5    4.10    2.60
   7   0   5    5.30    2.80
   7   0   5    4.10    2.00
   7   0  -5    6.30    2.70
   8   0   5   -0.40    1.70
  -8   0   5    0.00    1.60
   8   0  -5    3.40    2.10
  -8   0  -5    0.00    3.70
  -8   0  -5    1.10    1.70
  -8   0   5    0.50    1.70
  -8   0   5    2.60    2.60
  -9   0   5   -2.50    1.00
   9   0   5    1.20    1.20
  -9   0  -5    1.90    1.70
  -9   0   5   -0.10    1.00
  -9   0  -5    0.10    1.10
   9   0  -5   -0.80    1.20
  -9   0   5   -2.00    1.80
   0   1   5  205.08   10.50
   0  -1   5  196.28   11.30
   0   1   5  204.58   12.80
   0  -1  -5  192.78   10.50
   0  -1  -5  201.68   12.80
   0   1  -5  193.18   11.30
   0  -1   5  193.88   10.20
   1   1  -5 1215.38   68.39
   1  -1   5 1440.26   67.29
  -1  -1  -5 1435.86   70.89
  -1  -1  -5 1418.56   67.69
   1  -1   5 1472.75   69.89
  -1   1   5 1296.57   70.19
   1   1   5 1438.06   67.69
  -1  -1   5 1232.88   68.49
  -1   1  -5 1315.77   67.19
  -1   1  -5 1413.76   69.69
   1   1   5 1442.56   70.79
   1  -1  -5 1337.97   67.79
  -1  -1   5 1300.27   67.39
  -2   1   5   33.50    2.50
   2  -1   5   28.10    1.80
  -2  -1  -5   31.40    5.40
   2  -1   5   29.60    5.00
   2  -1   5   29.60    2.20
  -2  -1  -5   24.70    2.50
  -2   1   5   36.30    6.20
   2   1   5   23.10    4.60
  -2  -1   5   32.10    4.10
  -2  -1   5   33.00    2.60
  -2   1  -5   33.30    4.90
   2  -1  -5   30.70    5.50
   2   1   5   25.30    2.80
  -3   1   5  125.29   11.80
   3  -1   5  147.99    7.60
  -3   1   5  134.29    7.60
  -3  -1   5  101.19   13.80
  -3  -1   5  142.59    7.80
  -3   1  -5  138.29   12.30
   3   1   5  143.29   13.80
  -3  -1   5  149.29   11.80
   3  -1  -5  146.79   12.10
   3   1   5  148.49    8.30
  -4   1   5   39.00    4.10
  -4  -1  -5   37.80    8.30
  -4   1   5   41.80    8.80
   4  -1   5   39.90    3.60
  -4  -1  -5   34.60    4.10
  -4   1   5   38.30    2.90
   4   1   5   39.00    9.80
  -4  -1   5   27.90    4.50
  -4  -1   5   32.00    7.30
  -4  -1   5   32.90    3.10
  -4   1  -5   53.79    9.50
  -4   1  -5   40.30    4.30
   4   1   5   29.70    3.60
  -4   1  -5   43.70    9.50
  -5   1   5   62.59    4.20
   5  -1   5   57.29    4.70
   5  -1   5   62.29    4.70
  -5   1   5   63.69    5.10
   5   1  -5   52.99    6.10
   5   1  -5   63.29    5.20
  -5  -1  -5   60.59    5.40
   5  -1   5   63.99    5.20
  -5   1   5   57.09    5.50
  -5  -1  -5   58.19    4.30
   5   1   5   60.89    4.90
  -5  -1   5   64.79    4.50
  -5   1  -5   57.29    4.50
  -5  -1   5   56.59    5.60
  -5   1  -5   58.39    5.20
  -5   1  -5   62.19    5.30
   5   1   5   60.09    5.30
   5  -1  -5   55.79    5.30
   5   1   5   69.29    5.30
   5  -1  -5   58.59    5.30
  -5  -1   5   61.89    4.70
   6  -1   5   50.79    7.90
  -6  -1  -5   62.69    5.80
  -6  -1  -5   55.19    3.90
  -6  -1  -5   56.69    6.80
  -6   1   5   62.19    5.60
   6  -1   5   49.90    4.90
  -6  -1   5   57.29    4.60
   6  -1  -5   59.69    5.80
  -6  -1   5   54.29    8.40
  -6  -1   5   61.29    5.00
   6  -1  -5   52.19    6.70
  -6   1  -5   62.19    5.60
   6  -1  -5   48.50    6.30
   6   1   5   52.39    7.30
  -6  -1   5   45.50    4.60
  -6   1  -5   61.49    5.70
   6   1   5   53.69    5.30
   7  -1   5  195.98   12.00
  -7  -1  -5  182.98   11.80
   7   1  -5  186.68   11.60
  -7  -1  -5  182.78   11.60
  -7   1   5  170.18   12.00
  -7   1   5  179.28   11.40
  -7   1  -5  182.18   11.80
   7  -1  -5  186.88   11.40
   7   1   5  169.98   11.70
  -7   1  -5  189.78   11.80
  -7  -1   5  174.18   12.10
   7  -1  -5  163.88   11.90
   7   1   5  185.88   10.80
  -7   1  -5  174.38   10.10
  -8   1   5    4.60    1.90
  -8  -1  -5    2.50    2.00
  -8   1   5    3.20    2.00
   8  -1   5    2.80    2.10
  -8  -1  -5    3.40    2.30
  -8   1   5    1.00    2.30
   8   1  -5    6.50    2.40
   8  -1  -5    6.40    2.30
   8   1   5    3.70    2.30
  -8   1  -5    5.80    2.60
  -8  -1   5    3.80    1.70
  -8   1  -5    3.30    2.00
  -8  -1   5    4.60    2.70
  -8  -1   5    2.10    1.70
  -9   1   5   27.80    4.00
  -9  -1  -5   21.10    2.90
  -9   1   5   12.00    2.00
  -9  -1  -5   11.90    2.00
   9   1  -5   21.10    2.40
  -9  -1   5   22.80    2.50
  -9  -1   5   21.00    2.40
  -9   1  -5   29.10    3.80
  -9   1  -5   15.20    2.30
   0   2   5 1267.77   67.09
   0  -2  -5 1395.96   64.19
   0  -2  -5 1239.48   66.89
   0  -2   5 1245.08   63.59
   1  -2   5  699.73   36.50
  -1   2   5  849.91   42.10
  -1  -2  -5  876.51   42.30
   1  -2  -5  690.03   40.10
  -1   2  -5  710.13   38.40
   1  -2  -5  728.13   37.20
  -1   2  -5  696.63   38.50
   1   2   5  739.83   37.20
  -1  -2   5  682.23   36.80
  -2  -2  -5  407.66   25.10
   2  -2   5  367.46   19.70
  -2   2   5  423.26   25.20
   2   2   5  419.46   25.20
   2  -2  -5  377.06   20.80
  -2  -2   5  405.86   22.20
  -2   2  -5  409.76   23.90
  -2  -2   5  367.66   21.90
  -2   2  -5  408.36   23.90
   2   2   5  424.46   20.90
  -2  -2   5  396.36   20.50
  -3   2   5  200.98   10.60
  -3   2   5  192.68   11.50
  -3  -2   5  215.08   14.40
  -3   2  -5  196.38   15.40
   3   2   5  206.08   16.80
  -3   2  -5  186.98   15.40
   3  -2  -5  206.08   16.00
  -3  -2   5  205.48   10.90
   3   2   5  190.88   11.40
  -4   2   5   95.89    6.60
   4  -2   5   94.39    6.50
  -4   2   5   98.09    7.00
  -4   2   5   86.69   12.40
  -4  -2  -5   94.69    6.60
  -4  -2  -5   97.19   13.50
  -4   2   5   95.19    5.70
   4  -2   5  104.49    6.50
   4  -2  -5  104.79    6.70
  -4  -2   5   99.49    6.20
  -4  -2   5   99.69    6.10
   4   2   5   95.19    6.40
  -4   2  -5  100.19    7.00
  -4  -2   5   88.79    6.80
  -4   2  -5   93.79    6.30
   4   2   5   88.79   14.80
   4   2   5  105.79    7.20
  -5  -2  -5   12.20    1.70
  -5   2   5   17.80    2.10
   5   2  -5   12.50    2.50
   5   2  -5   14.90    3.40
  -5  -2  -5   15.50    2.90
  -5   2   5   11.60    3.00
   5  -2   5    9.00    2.00
  -5   2   5   20.90    3.10
   5  -2   5   13.90    3.00
   5  -2  -5   14.40    2.80
  -5  -2   5   14.30    3.10
  -5  -2   5    8.40    2.10
  -5   2  -5   11.00    2.90
  -5  -2   5   13.70    2.30
   5   2   5   13.80    3.10
  -5   2  -5   13.00    2.30
   5   2   5   15.90    2.60
  -5  -2   5   14.90    2.40
  -5   2  -5   10.40    2.40
   5  -2  -5   19.40    3.50
   5   2   5    9.00    2.60
   6  -2   5   71.19    6.50
  -6  -2  -5   70.09    6.20
  -6   2   5   65.39    7.20
   6   2  -5   68.99    6.20
  -6   2   5   78.59    6.20
  -6  -2  -5   77.59    6.10
   6   2   5   76.19    6.00
  -6   2  -5   73.89    6.80
  -6  -2   5   70.19    5.90
   6   2   5   68.99    6.50
  -6   2  -5   74.89    5.40
  -6  -2   5   69.19    5.50
  -6   2  -5   71.49    6.40
  -6  -2   5   66.49    6.60
   6  -2  -5   62.79    7.00
  -6  -2   5   71.59    5.30
   6  -2  -5   80.09    6.30
  -7   2   5   56.29    6.40
  -7  -2  -5   66.19    6.10
  -7  -2  -5   53.79    4.60
   7   2   5   50.89    6.00
  -7   2  -5   66.79    6.10
  -7   2  -5   57.49    6.50
   7  -2  -5   54.39    7.40
  -7  -2   5   64.19    5.20
  -7  -2   5   63.59    6.50
  -7   2  -5   58.19    6.20
   7   2   5   61.39    7.10
  -8   2   5    8.20    2.70
  -8   2   5    7.40    2.20
  -8  -2  -5    7.30    2.30
  -8  -2  -5    7.60    2.50
   8  -2   5    5.50    2.40
   8   2  -5    4.10    2.30
   8   2   5    5.10    2.10
  -8   2  -5    7.40    3.10
   8  -2  -5    4.50    2.20
   8   2   5    0.60    2.10
  -8  -2   5    4.70    1.90
  -8  -2   5    6.00    2.50
  -8   2  -5    7.10    2.60
  -8  -2   5    5.10    2.00
  -9   2   5    2.00    1.30
   9  -2   5    2.00    1.40
  -9  -2  -5    1.50    1.30
   9   2  -5    5.10    2.20
  -9   2   5    5.50    2.30
  -9  -2   5    2.30    1.10
  -9  -2   5    2.40    1.50
   9   2   5    1.70    1.30
  -9   2  -5    2.20    1.10
  -9  -2   5    2.90    1.00
  -9   2  -5    5.50    2.20
   0  -3  -5  237.48   12.70
   0  -3   5  214.58   12.10
   0   3   5  235.98   16.10
   0  -3  -5  240.18   16.10
   0   3  -5  233.28   12.00
  -1   3   5  525.35   30.30
   1  -3   5  501.65   25.30
   1   3  -5  479.45   25.80
  -1  -3  -5  601.14   32.10
   1  -3  -5  517.05   30.00
  -1   3  -5  504.15   27.10
  -1   3  -5  488.25   27.10
  -1  -3   5  477.05   25.70
   1   3   5  516.45   30.20
   1  -3  -5  467.55   26.10
   1   3   5  524.75   26.20
  -2  -3  -5  976.50   56.49
   2   3  -5 1043.70   51.59
  -2   3   5 1049.79   56.99
  -2  -3   5  918.71   51.49
   2   3   5 1191.28   59.09
  -2  -3   5 1026.90   51.19
  -2  -3   5  974.60   51.59
  -2   3  -5 1057.89   55.19
  -2   3  -5 1008.00   54.59
   3   3  -5  230.18   13.00
  -3   3   5  221.88   12.80
  -3   3   5  223.68   11.90
  -3   3   5  234.98   19.00
  -3  -3  -5  230.48   18.70
  -3  -3   5  232.98   12.30
  -3   3  -5  202.58   17.00
  -3  -3   5  223.38   15.00
   3   3   5  218.38   13.00
   3  -3  -5  236.88   18.50
   3   3   5  224.88   19.00
   4  -3   5   16.70    2.70
   4  -3   5   13.30    2.10
   4  -3   5   12.10    2.20
  -4   3   5   19.60    2.90
   4   3  -5    9.00    3.40
  -4   3   5    6.80    3.10
  -4  -3  -5   16.70    2.60
  -4   3   5    8.80    7.00
  -4   3   5   16.80    1.90
  -4  -3  -5   19.20    3.10
  -4  -3   5   12.60    2.60
   4  -3  -5   19.80    3.30
  -4   3  -5   11.90    2.10
   4   3   5   10.70    2.50
   4   3   5   15.10    2.50
   4  -3  -5   14.30    2.40
  -4  -3   5   18.00    3.00
  -4   3  -5   13.30    2.60
  -4  -3   5   17.30    2.20
  -4  -3   5   12.40    2.90
  -5  -3  -5   51.49    5.00
  -5   3   5   54.99    5.10
   5  -3   5   60.99    5.20
  -5   3   5   52.19    5.40
   5  -3   5   66.99    4.80
   5   3  -5   46.40    6.60
   5   3  -5   48.70    5.00
  -5  -3   5   55.19    4.90
  -5   3  -5   54.39    4.60
   5  -3  -5   53.19    5.60
  -5  -3   5   55.59    4.40
   5   3   5   56.29    4.90
  -5  -3   5   56.29    4.50
  -5  -3   5   55.99    5.40
   5   3   5   57.09    5.50
   5   3   5   56.09    6.00
  -5   3  -5   58.99    5.60
  -5   3  -5   53.99    5.30
   6  -3   5   11.60    3.40
  -6   3   5   17.60    3.40
  -6   3   5   16.30    3.50
  -6  -3  -5    8.80    3.10
   6   3  -5   13.00    3.00
  -6  -3   5   12.80    2.40
  -6  -3   5   16.10    3.00
  -6  -3   5   12.50    3.00
   6   3   5   14.90    3.60
   6  -3  -5    8.90    3.50
  -6   3  -5   16.90    3.70
  -6   3  -5   12.60    3.50
  -6   3  -5   12.60    2.50
   6  -3  -5   13.80    2.90
   6   3   5   10.80    2.80
   7  -3   5   41.90    4.50
   7  -3   5   43.80    5.50
  -7   3   5   56.99    6.10
  -7  -3  -5   55.09    5.10
   7   3  -5   47.30    5.70
  -7   3   5   55.69    5.50
  -7  -3  -5   51.39    5.40
  -7   3  -5   52.89    5.30
  -7   3  -5   51.09    5.30
  -7   3  -5   52.99    6.00
  -7  -3   5   47.30    5.60
   7   3   5   54.19    5.20
  -7  -3   5   48.90    4.50
  -7  -3   5   34.30    5.50
   8  -3   5    3.20    2.00
  -8  -3  -5    6.90    2.30
  -8   3   5    6.30    2.30
   8   3  -5    6.30    2.40
  -8  -3  -5   10.10    2.70
  -8   3   5    6.40    2.70
  -8  -3   5    8.40    1.70
   8   3   5    4.80    2.30
  -8   3  -5    5.40    2.40
  -8  -3   5    4.90    1.50
  -8   3  -5    4.30    2.40
  -8  -3   5    4.60    2.10
   8   3   5    3.60    2.10
  -9   3   5   -0.30    0.80
  -9   3   5    3.40    2.00
  -9  -3  -5    1.20    0.80
   9  -3   5    0.10    1.20
   9   3  -5    1.80    1.30
  -9   3  -5   -0.30    1.10
  -9  -3   5    0.80    1.30
  -9   3  -5   -0.60    2.00
   0   4   5  181.38   10.10
   0   4  -5  162.58    9.30
   0   4   5  187.98   14.60
   0  -4  -5  187.38   14.50
   0  -4   5  167.48    9.40
   1   4  -5   66.39    4.50
  -1  -4  -5   73.89    8.80
   1  -4   5   59.39    3.70
  -1   4   5   52.69    7.90
   1   4   5   72.69    8.70
   1  -4  -5   59.79    8.20
  -1   4  -5   55.79    5.10
  -1  -4   5   63.89    4.30
  -1   4  -5   64.39    5.10
  -2  -4  -5  142.09   13.80
  -2   4   5  163.88   14.90
   2   4  -5  140.19    8.90
   2  -4  -5  171.08   16.10
  -2   4  -5  153.18   12.90
  -2  -4   5  139.29    8.40
   2   4   5  123.29   16.20
   3  -4   5  419.46   21.10
  -3   4   5  373.16   28.90
  -3   4   5  378.46   21.20
  -3   4   5  380.06   20.80
   3   4  -5  395.26   21.80
  -3  -4  -5  413.96   21.40
   3  -4   5  405.06   21.10
  -3   4   5  401.36   20.40
   3  -4  -5  389.66   28.80
  -3  -4   5  400.26   21.40
  -3  -4   5  414.06   21.00
  -3  -4   5  404.06   22.70
  -4   4   5   21.70    2.20
  -4   4   5   22.10    3.50
   4  -4   5   17.50    2.60
   4  -4   5   26.70    3.40
  -4  -4  -5   20.20    4.60
  -4   4   5   21.10    3.20
   4   4  -5   14.00    3.00
  -4  -4  -5   23.30    3.40
   4  -4   5    9.30    4.60
  -4  -4   5   18.10    2.30
  -4   4  -5   24.20    3.00
   4   4   5   16.40    3.00
  -4  -4   5   13.90    2.50
  -4  -4   5   24.50    3.50
   4   4   5   16.50    2.60
  -4  -4   5   23.00    4.60
   4  -4  -5   23.60    3.10
  -4   4  -5   21.40    5.30
  -5   4   5   32.60    4.60
   5   4  -5   29.70    3.90
  -5   4   5   33.70    4.00
   5  -4   5   37.60    3.80
   5  -4   5   19.60    3.50
   5  -4   5   37.90    4.00
  -5  -4   5   19.90    3.10
   5  -4  -5   42.20    5.70
  -5  -4   5   30.00    3.50
   5   4   5   37.10    6.50
  -5   4  -5   29.40    3.70
  -5  -4   5   28.50    3.00
  -5  -4   5   31.50    4.50
  -5   4  -5   29.60    4.20
   5   4   5   32.00    3.90
   5   4   5   36.90    4.90
   6  -4   5   65.29    5.80
   6   4  -5   58.19    5.90
  -6   4   5   61.19    6.00
  -6   4   5   62.69    6.50
   6  -4   5   61.49    5.50
   6   4   5   65.99    6.40
  -6   4  -5   61.59    5.30
   6   4   5   69.69    5.80
  -6   4  -5   59.79    6.40
  -6  -4   5   63.19    5.60
   6  -4  -5   51.69    4.70
  -6   4  -5   59.29    6.10
  -6  -4   5   66.39    4.70
  -7   4   5   43.90    5.30
   7  -4   5   37.80    4.70
  -7   4   5   23.60    3.90
  -7  -4  -5   39.30    4.40
   7  -4   5   30.60    4.00
   7   4  -5   34.60    4.90
   7   4   5   35.40    4.40
  -7   4  -5   28.30    4.20
   7   4   5   29.20    4.90
  -7  -4   5   39.10    3.80
  -7  -4   5   32.50    4.30
  -7  -4   5   28.30    3.20
  -7   4  -5   37.70    5.40
  -7   4  -5   37.60    3.70
  -7  -4   5   33.70    3.90
  -8  -4  -5    0.20    1.20
  -8   4   5    3.20    2.10
  -8  -4  -5    2.40    1.80
   8  -4   5    2.40    2.20
  -8   4   5    1.20    1.90
   8   4   5    2.70    2.00
  -8   4  -5    3.40    1.90
  -8   4  -5    3.60    2.60
  -8  -4   5    7.00    1.60
  -8  -4   5    4.60    1.00
  -8  -4   5    6.40    2.60
  -9  -4  -5   -0.20    0.60
  -9   4   5   -0.30    0.80
   9   4  -5    0.50    1.10
  -9  -4   5   -0.10    1.10
   0   5   5  326.07   18.00
   0   5   5  345.57   24.40
   0  -5  -5  331.97   25.10
   0  -5   5  327.57   17.20
  -1  -5  -5   -3.20    4.60
   1   5  -5    2.00    1.40
  -1   5   5    2.90    4.50
  -1  -5   5    2.00    1.20
   1  -5  -5    2.90    4.30
   1   5   5    6.20    2.20
   1   5   5    0.80    4.00
   2  -5   5    0.60    1.70
   2  -5   5    3.50    1.50
   2   5  -5    2.30    2.10
  -2  -5  -5   -0.90    2.00
   2  -5   5   -0.10    1.70
   2   5   5    0.70    1.40
  -2  -5   5    1.10    1.40
  -2   5  -5   -3.40    3.20
   2  -5  -5    0.40    1.90
  -2  -5   5    2.00    2.10
  -2  -5   5    3.70    1.80
  -3   5   5    7.90    2.70
  -3  -5  -5   19.40    3.50
   3  -5   5   20.40    3.30
  -3   5   5   15.70    2.10
   3  -5   5   15.30    2.70
   3  -5   5   13.20    2.30
  -3   5   5   14.60    2.70
   3   5  -5   16.90    3.50
   3  -5   5   12.50    2.80
   3  -5  -5    9.00    2.60
  -3   5  -5   10.90    2.40
  -3  -5   5   13.60    2.70
   3   5   5   22.00    4.50
  -3  -5   5   17.70    2.80
  -3  -5   5   10.80    2.50
  -4   5   5   24.50    3.70
   4  -5   5   30.00    4.00
   4   5  -5   20.00    4.30
   4  -5   5   22.20    3.40
  -4  -5  -5   26.30    3.80
   4  -5   5   29.30    4.00
  -4   5   5   24.20    3.60
   4  -5   5   15.10    2.70
  -4  -5   5   25.10    3.30
   4   5   5   22.30    3.10
   4   5   5   16.20    3.40
  -4  -5   5   27.40    3.20
  -4   5  -5   21.20    3.30
  -4  -5   5   17.50    2.10
  -4  -5   5   27.00    4.10
  -4  -5   5   16.50    5.00
  -4   5  -5   25.10    3.20
   4  -5  -5   14.70    3.30
   5  -5   5    0.30    1.90
   5   5  -5   -2.80    3.10
   5  -5   5    2.70    2.50
  -5   5   5   -1.00    1.70
   5  -5   5    2.30    1.70
  -5   5  -5    0.20    2.20
  -5  -5   5   10.40    3.30
  -5  -5   5    0.10    1.10
   5   5   5    2.10    2.10
  -5  -5   5   -0.30    2.90
  -5  -5   5    1.50    2.30
  -5   5  -5    1.80    1.80
  -6   5   5   15.90    4.70
   6   5  -5   13.40    4.00
  -6   5   5   21.10    4.00
   6  -5   5   19.00    4.80
   6  -5   5   13.80    3.40
   6   5   5   15.60    4.30
  -6   5  -5   17.10    3.90
  -6   5  -5   16.30    3.40
  -6  -5   5    9.90    3.00
  -6  -5   5   13.70    2.00
  -6  -5   5   17.20    5.10
  -7  -5  -5    9.00    2.40
   7  -5   5   10.40    2.80
   7   5  -5    8.70    2.70
  -7  -5  -5    6.40    1.90
  -7   5   5   14.20    3.10
  -7   5   5    4.90    2.20
  -7  -5   5    5.60    1.60
  -7  -5   5   10.90    2.50
   7   5   5    8.80    2.40
  -7  -5   5    6.20    2.20
  -7   5  -5    8.40    2.70
  -7   5  -5    8.60    2.10
  -8  -5  -5    1.30    1.20
  -8   5   5    1.30    1.90
  -8   5   5    2.50    1.50
   8   5  -5    2.60    1.80
  -8  -5   5    0.80    1.60
   8   5   5    2.60    1.50
  -8   5  -5    2.50    2.10
  -8  -5   5    1.10    1.30
   0  -6   5   81.99    6.10
   0   6   5   79.79    6.10
   0  -6  -5   87.29    6.20
   0   6  -5   66.69    5.10
   0  -6  -5   80.69    5.90
   0  -6   5   74.29    5.90
   1  -6   5  102.19    6.90
   1   6  -5  108.19    7.10
  -1  -6  -5   95.49    7.90
  -1  -6  -5  114.69    7.60
   1  -6   5  115.59    7.60
   1  -6   5  106.29    7.50
   1  -6  -5  110.69    7.70
   1  -6  -5  105.59    7.30
   1   6   5  105.09    7.60
  -1  -6   5  105.99    7.30
  -1  -6   5  114.69    7.40
  -1  -6   5  103.79    7.50
   2  -6   5   15.10    3.30
  -2  -6  -5   11.60    3.00
  -2  -6  -5    8.10    2.40
   2   6  -5   11.30    2.50
   2  -6   5   10.50    2.80
   2  -6   5    9.20    2.20
  -2  -6   5    8.50    2.30
  -2  -6   5    7.40    2.40
  -2  -6   5   11.60    3.20
   2  -6  -5    4.70    3.10
   2  -6  -5    8.50    2.60
   2   6   5   11.00    2.90
  -2  -6   5    5.20    1.70
  -2  -6   5   10.70    3.00
   3  -6   5   66.09    6.00
   3  -6   5   68.39    6.10
  -3   6   5   66.29    4.60
   3  -6   5   65.39    5.60
   3  -6   5   65.49    5.00
   3   6  -5   67.29    6.70
  -3   6   5   59.19    5.50
  -3  -6  -5   71.69    6.00
  -3  -6   5   68.79    5.70
   3  -6  -5   68.59    5.70
  -3   6  -5   61.79    5.60
  -3   6  -5   74.49    5.70
  -3  -6   5   58.19    5.00
  -3  -6   5   62.09    5.50
  -3  -6   5   71.09    7.70
   3   6   5   58.79    6.60
   4  -6   5   33.90    5.10
  -4   6   5   28.20    4.10
   4  -6   5   28.50    3.90
  -4  -6  -5   30.60    4.30
  -4   6   5   26.30    4.30
   4  -6   5   26.80    3.70
  -4  -6   5   35.20    4.60
  -4   6  -5   38.00    5.00
  -4  -6   5   34.30    7.30
   4  -6  -5   33.10    4.00
   4   6   5   36.70    4.00
  -4   6  -5   35.40    4.50
  -4  -6   5   36.30    4.40
   5  -6   5   40.40    4.10
   5   6  -5   31.50    4.30
  -5   6   5   36.50    4.50
  -5   6   5   41.70    5.20
   5  -6   5   45.00    4.60
   5  -6   5   23.30    3.90
   5  -6   5   36.60    4.50
  -5  -6   5   39.10    4.80
  -5   6  -5   41.20    5.20
  -5   6  -5   40.90    4.20
  -5  -6   5   27.60    4.10
   5   6   5   44.30    4.60
  -5  -6   5   38.80    4.70
  -6  -6  -5   13.50    2.60
   6  -6   5   19.40    3.20
  -6   6   5   14.00    4.10
   6  -6   5   21.80    3.40
  -6   6   5   11.70    2.90
   6   6  -5   11.80    2.90
  -6  -6   5   10.90    3.10
   6   6   5   14.60    2.80
  -6  -6   5   10.20    2.50
  -6   6  -5   14.30    3.40
  -6   6  -5   11.50    2.30
  -7   6   5   -1.00    2.20
   7   6  -5    1.20    2.30
  -7   6   5    1.30    1.80
  -7  -6  -5    0.50    1.50
  -7  -6  -5   -0.60    1.30
   7   6   5    1.20    1.80
  -7  -6   5   -0.60    1.70
  -7  -6   5   -0.50    1.60
  -7   6  -5    1.90    2.00
  -7   6  -5    2.90    1.60
  -8  -6  -5    2.50    1.30
  -8   6   5    2.60    1.20
  -8  -6  -5    4.50    1.10
   8   6  -5    5.70    1.70
  -8  -6  -5    3.60    1.00
  -8  -6   5   10.90    1.90
  -8  -6   5    5.10    1.40
   8   6   5    6.80    1.50
   0   7   5   12.60    2.70
   0  -7   5   11.10    3.00
   0  -7   5   10.60    3.10
   0  -7   5    7.70    3.30
   0  -7   5   13.70    2.50
   0  -7  -5    8.90    3.00
   0  -7  -5   12.50    3.10
   1   7  -5   63.09    5.30
  -1  -7  -5   66.49    5.90
   1  -7   5   65.89    5.80
   1  -7   5   66.19    6.00
   1  -7   5   70.79    5.50
  -1  -7  -5   66.09    5.90
   1  -7  -5   64.39    5.60
   1   7   5   58.89    6.10
  -1  -7   5   70.49    5.50
   1  -7  -5   63.79    6.00
  -1  -7   5   63.99    6.30
  -1  -7   5   68.89    5.90
   2  -7   5    5.60    2.70
   2   7  -5    7.30    3.10
  -2  -7  -5    7.20    3.10
   2  -7   5    6.60    3.10
  -2  -7  -5    2.80    2.20
   2  -7   5   10.50    3.20
  -2  -7   5   12.10    4.00
  -2  -7   5    9.20    4.70
  -2  -7   5    7.00    2.60
  -2  -7   5    9.30    2.90
   2  -7  -5    6.90    2.50
   2   7   5    7.10    3.00
   2  -7  -5    4.40    2.60
   3  -7   5    2.50    3.20
   3  -7   5    5.70    2.70
  -3  -7  -5    1.10    2.60
   3  -7   5    7.20    3.20
  -3  -7   5    4.60    6.40
  -3  -7   5    8.60    7.60
  -3  -7   5    4.50    2.90
  -3   7  -5    0.80    2.00
   3  -7  -5    3.50    2.70
  -4  -7  -5   -0.90    2.40
   4  -7   5   -2.50    2.80
   4  -7   5    1.10    2.20
   4  -7   5    0.30    2.20
  -4   7   5   -1.10    1.90
  -4  -7   5   -1.20    1.60
  -4  -7   5    4.40    7.30
   4  -7  -5    0.00    2.00
  -4   7  -5   -0.40    1.50
   4   7   5   -0.60    1.80
  -4  -7   5   -0.50    2.10
   5   7  -5    0.80    2.00
   5  -7   5    2.00    2.80
  -5   7   5    0.10    2.20
   5  -7   5    7.10    3.50
   5   7   5    5.00    2.40
  -5   7  -5    5.00    2.50
  -5  -7   5    2.40    1.80
  -5  -7   5    7.70    2.90
  -5   7  -5    1.70    1.50
   6   7  -5    3.20    2.10
  -6  -7  -5    9.80    2.20
   6  -7   5   10.80    2.40
  -6   7   5    6.80    2.40
   6   7   5    6.80    2.20
  -6  -7   5    5.40    2.30
  -6   7  -5    8.90    2.20
  -6   7  -5   10.20    2.40
  -6  -7   5    3.90    2.00
  -7   7   5    0.80    1.40
  -7  -7  -5    1.90    1.30
   7   7  -5    1.80    1.70
  -7  -7  -5    1.00    1.00
  -7  -7  -5    0.20    1.40
  -7  -7   5    1.40    1.70
   7   7   5    2.00    1.60
  -7  -7   5    0.20    1.40
  -7   7  -5    2.40    1.40
   0  -8   5   16.90    3.90
   0  -8  -5   18.40    3.80
   0  -8  -5   15.80    3.60
   0  -8   5   18.90    5.00
  -1  -8  -5   89.79    7.80
   1  -8   5  108.39    9.20
   1  -8   5  121.79    8.20
  -1  -8  -5  118.09    8.30
   1  -8   5  102.59    8.30
  -1  -8   5  106.09    7.70
  -1  -8   5   91.69   10.30
  -1  -8   5  113.49    8.70
   1  -8  -5  112.79    7.80
   1  -8  -5  104.69    8.10
   2  -8   5   10.40    4.30
   2  -8   5   13.40    3.60
  -2  -8  -5   15.60    3.50
  -2  -8  -5    9.70    2.90
   2  -8   5   16.90    4.00
   2  -8  -5    7.50    2.60
  -2  -8   5   10.10    2.70
  -2   8  -5    7.40    2.20
  -2  -8   5   11.90    5.50
  -2  -8   5    8.00    8.50
   2  -8  -5   13.60    3.50
   3  -8   5   -3.20    2.60
   3  -8   5   -1.70    3.90
  -3  -8  -5   -1.60    2.30
   3  -8   5    3.60    2.50
  -3   8  -5    1.80    1.50
  -3  -8   5   -1.40    2.00
  -3  -8   5   -2.00    2.20
  -3  -8   5    3.90    8.60
   3  -8  -5    0.60    2.30
  -4  -8  -5    2.20    2.40
   4  -8   5    6.20    4.20
   4  -8   5    6.80    2.70
  -4  -8   5    3.40   10.10
  -4  -8   5    3.80    2.10
   4   8   5    5.70    2.60
   4  -8  -5    5.90    2.80
  -4  -8   5    9.30    2.50
   5   8  -5   -0.40    3.60
   5  -8   5    2.70    1.90
   5  -8   5   -3.00    3.80
  -5  -8   5    1.20    2.00
  -5  -8   5    2.20    2.20
  -5  -8   5    1.90    1.60
  -5   8  -5    1.20    1.70
   5   8   5    1.80    2.00
   6   8  -5    1.10    1.60
  -6  -8  -5    4.00    2.00
  -6  -8  -5    5.40    1.30
  -6  -8   5    3.60    1.80
  -6  -8   5    6.80    1.90
  -6   8  -5    4.50    2.20
   6   8   5    6.80    2.20
  -7  -8  -5    3.60    1.80
   7   8  -5    5.10    1.40
   7   8   5    4.90    1.70
  -7  -8   5    6.80    1.90
  -7  -8   5    3.10    1.40
   0  -9  -5   -0.50    2.70
   0  -9   5    2.20    3.40
   0  -9  -5    4.20    2.90
   0  -9   5    4.00    7.60
  -1  -9  -5    1.60    2.40
  -1  -9  -5    1.80    2.90
   1  -9   5   -1.30    2.90
   1  -9   5   -5.10    6.30
  -1  -9   5    1.40    2.30
  -1  -9   5    4.40    4.70
   1  -9  -5   -1.50    2.20
   1  -9  -5   -0.40    2.70
  -1  -9   5   -0.40    9.90
  -2  -9  -5   23.70    4.20
   2  -9   5   24.00    4.10
  -2  -9  -5   19.00    3.50
   2  -9   5   20.30    7.30
   2  -9  -5    6.40    3.70
   2  -9  -5   13.80    3.30
  -2  -9   5    7.30   10.70
  -2  -9   5   16.80    3.30
  -2  -9   5   13.70    7.70
   3  -9   5   10.00    7.00
  -3  -9  -5    5.20    2.50
   3  -9   5    5.80    2.90
  -3  -9   5    5.40    2.20
  -3  -9   5   12.50    9.50
   3  -9  -5    5.10    2.30
  -3   9  -5    6.20    2.00
  -3  -9   5   -1.30    2.10
   4   9  -5    9.80    2.60
   4  -9   5   15.90    3.10
   4  -9   5    1.50    5.70
  -4  -9  -5    6.90    2.40
  -4  -9   5    7.80    5.20
  -4   9  -5   15.10    2.40
   4  -9  -5    5.00    1.90
   4   9   5   13.20    2.40
  -4  -9   5   10.60    2.50
  -5  -9  -5    0.20    1.50
   5  -9   5   -1.40    3.80
   5   9  -5   -1.50    1.50
   5  -9   5   -0.60    1.40
   5   9   5    0.70    1.70
  -5  -9   5   -1.20    1.40
  -5  -9   5    1.70    1.60
  -5   9  -5    0.80    1.90
   6   9  -5    3.10    1.20
  -6  -9  -5    0.10    0.90
  -6  -9   5    0.60    1.10
   6   9   5    0.20    1.30
   0 -10  -5   12.30    3.10
   0 -10   5    5.60    4.70
   0 -10  -5   13.70    4.00
   0 -10   5    5.90   10.10
   1 -10   5    9.00    3.90
  -1 -10  -5   11.80    3.70
   1 -10   5    7.50    9.80
  -1 -10  -5    9.90    2.90
   1 -10  -5    6.90    3.00
  -1 -10   5   18.40   11.40
  -1 -10   5    8.30    7.10
   1 -10  -5    6.80    3.00
  -2 -10  -5   -1.20    2.40
   2 -10   5    0.30    3.00
  -2 -10  -5   -2.20    1.60
   2 -10   5    1.90    8.40
   2 -10  -5    0.20    2.00
  -2 -10   5   -6.00    8.00
   2 -10  -5   -1.70    1.80
  -2 -10   5    1.50    9.10
   3 -10   5   -1.50    7.40
   3 -10   5    8.10    2.70
  -3 -10  -5    0.50    1.90
  -3 -10  -5   -0.50    1.80
  -3 -10   5    1.80    2.30
  -3 -10   5    2.80    7.40
   3 -10  -5    0.80    1.60
   4 -10   5    2.40    2.10
   4  10  -5    1.10    1.70
   4 -10   5    1.90    5.00
  -4 -10  -5    0.40    1.20
  -4 -10   5    2.40    2.20
   4  10   5    2.00    1.60
  -4 -10   5    0.20    1.20
  -5 -10  -5    2.10    1.50
   5  10   5    3.60    1.40
  -5 -10   5    1.60    1.20
   0 -11   5   -4.10   10.80
   0 -11  -5   -1.00    1.70
   0 -11   5    1.40    6.80
   1 -11   5    2.40   10.70
   1 -11   5   -0.70    4.90
  -1 -11  -5    0.20    1.60
   1 -11  -5   -1.60    1.40
  -1 -11   5   -2.90    7.70
  -1 -11   5    5.20    7.50
  -2 -11  -5    1.50    1.50
   2 -11   5   -1.40    6.40
   2 -11   5    1.80    3.70
  -2 -11   5    1.80    5.70
  -2 -11   5   -0.80    2.30
   3 -11   5    0.60    3.00
   3 -11   5   -0.80    5.20
  -3 -11  -5    2.00    1.40
  -3 -11  -5    1.20    2.00
   3  11   5    1.40    1.30
  -3 -11   5    0.00    2.70
   4 -11   5   -0.50    1.40
   4  11   5    3.00    1.10
   0 -12   5    0.10    2.70
   0 -12   5    2.70    4.30
   1 -12   5   -3.70    3.50
   1 -12   5    3.30    3.20
  -1 -12   5    0.60    4.80
  -1 -12   5    2.10    1.20
   2 -12   5    0.50    3.00
   2 -12   5    0.70    2.10
   2  12   5    2.30    1.00
  -2 -12   5   -0.50    1.50
   0   0  -6   14.80    3.10
   0   0   6   16.90    3.10
   0   0  -6   16.90    2.00
   1   0   6  107.59    6.20
  -1   0   6  101.09    6.10
  -1   0  -6  117.49    6.20
  -1   0  -6  120.09    9.00
   1   0   6  112.59    8.80
  -1   0   6   99.59    8.10
  -2   0  -6  183.88   10.30
   2   0   6  197.38   10.30
   2   0   6  189.98   14.00
   2   0  -6  190.98   13.00
  -2   0   6  191.28   13.50
  -2   0  -6  211.68   14.40
  -2   0   6  189.08   10.30
   3   0   6  106.29   11.40
   3   0   6  124.69    7.20
  -3   0   6  123.39    7.00
  -3   0  -6  135.19   12.30
  -3   0   6  119.79    7.70
   4   0   6  194.18   10.50
  -4   0  -6  176.88   10.10
  -4   0   6  176.28   11.00
   4   0   6  178.88   12.10
  -4   0   6  180.38   10.00
  -4   0   6  176.58   10.40
  -4   0  -6  189.48   17.90
  -5   0   6   13.90    2.20
  -5   0  -6   12.00    2.10
   5   0  -6    6.30    2.40
   5   0   6    8.40    2.30
   5   0   6    8.70    2.60
  -5   0   6   14.20    2.50
  -5   0   6    9.00    2.50
   5   0   6    8.50    2.10
   5   0   6    9.50    1.80
  -5   0  -6    7.10    2.20
  -5   0   6    9.90    2.70
  -6   0   6    7.30    1.80
  -6   0  -6    9.30    3.00
  -6   0   6    6.40    2.20
  -6   0   6    7.20    2.80
  -6   0  -6    9.60    3.50
  -6   0  -6   13.00    2.30
   6   0   6    9.00    2.30
   6   0   6    7.90    2.80
   6   0  -6    7.10    2.90
  -7   0   6   -0.20    1.70
  -7   0   6    2.10    2.30
   7   0  -6    0.90    2.40
  -7   0  -6   -1.40    2.20
   7   0   6   -1.30    2.20
  -7   0  -6   -0.40    2.00
  -8   0   6    0.60    1.50
  -8   0   6    0.60    2.10
   8   0  -6    1.40    2.10
  -8   0   6    1.60    1.80
   8   0   6    2.70    2.40
  -8   0  -6    1.10    2.90
  -8   0  -6    0.10    1.70
  -9   0   6    4.70    1.70
  -9   0  -6   -0.50    1.50
   9   0   6    0.80    1.20
  -9   0   6    0.90    1.00
   9   0  -6    0.80    1.20
  -9   0  -6    1.40    1.30
   0  -1   6 2058.59  103.19
   0   1   6 2047.10  104.79
   0  -1   6 2008.70  101.69
   0  -1  -6 2333.77  102.39
   0   1  -6 1993.20  103.19
   0   1  -6 1875.41  101.69
   0   1   6 2209.38  101.99
   0  -1  -6 1992.50  104.79
  -1  -1  -6  158.28    8.50
   1  -1   6  142.79   10.30
  -1  -1  -6  136.59   15.10
   1  -1   6  149.59    7.90
  -1   1   6  142.59   10.90
   1   1  -6  144.09    9.30
  -1   1  -6  153.78    8.70
   1  -1  -6  143.49    8.50
  -1  -1   6  147.89    8.10
   1   1   6  163.18   11.60
   1  -1  -6  152.48   11.00
  -1   1  -6  154.78   10.50
  -1  -1   6  146.09    9.50
   1   1   6  161.78    8.40
   2   1  -6   21.50    3.70
   2  -1   6   16.40    1.50
  -2  -1  -6   27.10    5.80
  -2  -1  -6   18.40    2.20
   2  -1   6   17.50    4.00
  -2   1   6   15.60    3.50
   2  -1   6   15.30    1.70
  -2   1   6   18.60    2.00
  -2   1  -6   16.20    2.10
  -2  -1   6   19.50    3.40
   2   1   6   21.10    2.50
  -2   1  -6   17.30    4.00
   2   1   6   25.00    5.40
   2  -1  -6   26.00    5.10
  -2  -1   6   20.00    2.20
   3  -1   6   49.99    2.90
   3  -1   6   56.69    3.60
  -3   1   6   50.69    3.70
  -3  -1  -6   51.99    8.20
  -3   1   6   55.19    4.70
  -3   1   6   56.99    7.40
   3  -1  -6   65.09    9.10
  -3  -1   6   50.09    6.60
  -3   1  -6   61.69    8.20
  -3  -1   6   56.39    4.60
   3   1   6   62.99    4.40
   3   1   6   56.39    8.50
  -3  -1   6   56.79    4.00
  -3  -1   6   52.09    9.00
  -4   1   6   49.80    3.50
  -4   1   6   45.00   11.60
  -4  -1  -6   30.80    8.50
  -4   1   6   46.50    4.50
  -4   1   6   47.00    4.10
   4  -1   6   47.30    4.20
  -4  -1  -6   51.29    3.70
   4  -1   6   41.70    4.00
   4   1   6   32.40   10.60
  -4   1  -6   48.30   10.00
  -4   1  -6   47.10    3.80
   4   1   6   44.90    4.20
   4   1   6   38.40    4.20
  -4  -1   6   47.10    3.70
   4  -1  -6   51.59    4.50
  -4  -1   6   44.10    4.60
  -4  -1   6   47.20    3.80
  -5   1   6   48.00    3.90
  -5   1   6   54.59    5.20
  -5   1   6   52.39    4.70
   5   1  -6   49.90    5.20
   5  -1   6   53.49    4.80
  -5  -1  -6   51.49    3.90
  -5  -1  -6   46.30    4.80
   5  -1   6   48.10    4.10
   5  -1   6   34.20    5.20
   5   1  -6   48.10    4.80
  -5  -1   6   52.79    4.10
  -5  -1   6   48.30    5.20
   5  -1  -6   56.79    4.90
  -5  -1   6   52.99    4.60
   5   1   6   49.10    4.70
   5  -1  -6   48.80    5.70
  -5  -1   6   51.49    4.30
   5   1   6   50.49    4.60
  -5   1  -6   55.79    4.20
  -5   1  -6   48.70    4.80
   5   1   6   57.39    6.50
  -5   1  -6   52.89    4.90
  -6   1   6    2.30    2.50
  -6   1   6    4.80    2.20
   6   1  -6    1.30    2.20
  -6  -1  -6    2.80    2.20
  -6  -1  -6    3.50    2.20
   6  -1   6   10.00    2.90
  -6  -1  -6    3.00    1.90
  -6   1  -6    4.50    1.80
  -6  -1   6    1.10    1.90
  -6  -1   6    4.20    2.80
   6  -1  -6    5.60    3.20
   6   1   6    5.70    2.40
  -6   1  -6    0.30    2.40
  -6  -1   6    2.40    1.60
   6  -1  -6    3.40    2.30
  -6   1  -6    2.30    3.30
   6   1   6    2.90    2.50
  -7   1   6    4.50    2.30
  -7   1   6    6.90    2.80
   7   1  -6    8.00    4.00
  -7   1   6    7.20    2.90
  -7  -1  -6    9.00    2.90
   7  -1   6    2.80    3.50
  -7  -1  -6    8.80    3.60
   7  -1  -6    5.10    3.40
  -7   1  -6    2.90    3.70
   7   1   6    9.00    4.40
  -7   1  -6    7.70    3.00
  -7  -1   6    6.80    2.60
   7   1   6    7.70    2.80
  -7  -1   6    7.30    3.40
  -7   1  -6    3.60    2.40
   8  -1   6    0.50    1.80
  -8  -1  -6    4.20    2.20
   8   1  -6    3.70    2.30
  -8  -1  -6    4.90    2.60
  -8   1   6    6.30    2.20
  -8   1   6   11.40    3.30
   8  -1   6    6.70    1.80
   8  -1  -6    8.00    2.30
  -8   1  -6    5.90    2.20
   8   1   6    1.00    2.10
  -8  -1   6    9.50    3.10
  -8  -1   6    5.30    2.10
  -8   1  -6    5.50    2.70
  -8  -1   6    5.60    1.80
   9  -1   6    0.20    1.00
  -9  -1  -6    2.80    1.90
  -9   1   6    0.60    1.20
  -9  -1  -6    0.00    1.20
   9   1  -6    0.60    1.30
   9   1   6    0.10    1.00
  -9  -1   6    1.00    1.20
  -9   1  -6    0.50    1.00
  -9   1  -6   -2.30    1.60
   0  -2   6 1917.61   96.99
   0   2   6 1947.91  101.09
   0   2  -6 1918.51   97.29
   0  -2  -6 1894.91   97.49
   0   2   6 2111.39   97.59
   0  -2  -6 2023.50  101.19
  -1  -2  -6   19.50    4.30
  -1  -2  -6   16.10    2.40
  -1   2   6   20.90    4.40
   1  -2   6   16.50    1.60
   1  -2  -6   16.90    2.30
   1   2   6   13.60    3.80
   1   2   6   20.90    3.00
  -1   2  -6   22.40    3.70
  -1  -2   6   16.10    2.10
   1  -2  -6   16.10    4.00
  -2   2   6 1229.28   64.59
   2  -2   6 1107.89   58.59
  -2  -2   6 1078.39   60.69
  -2   2  -6 1247.38   62.99
   2  -2  -6 1234.28   64.19
   2   2   6 1191.88   64.59
  -2   2  -6 1179.28   63.09
   2   2   6 1218.48   59.69
  -2  -2   6 1192.68   60.99
  -2  -2   6 1241.88   59.29
  -3   2   6    3.00    1.80
  -3  -2  -6    6.10    4.40
  -3   2   6    7.70    3.30
  -3   2   6    4.20    1.30
  -3   2  -6    0.20    3.00
  -3   2  -6    4.80    3.70
   3  -2  -6   -5.30    2.80
  -3  -2   6    2.90    1.40
   3   2   6    4.50    3.90
  -3  -2   6    1.20    2.90
  -3  -2   6    1.90    1.70
   3   2   6    2.40    1.60
  -4  -2  -6   38.80    3.30
  -4   2   6   33.70    3.70
  -4   2   6   42.10    3.00
  -4  -2  -6   18.70    7.60
   4  -2   6   46.40    3.90
  -4  -2  -6   30.90    3.90
   4  -2   6   40.20    3.70
  -4   2   6   43.30    5.80
   4   2   6   31.20   10.60
  -4  -2   6   40.90    3.50
  -4   2  -6   40.30    3.60
  -4  -2   6   35.40    3.70
  -4  -2   6   36.00    3.20
   4   2   6   36.80    4.10
  -4  -2   6   31.60    4.10
   5   2  -6   11.60    2.60
   5  -2   6   12.90    2.30
   5  -2   6   14.70    3.10
  -5  -2  -6   14.20    1.90
  -5  -2  -6   17.20    2.90
   5   2  -6   14.60    3.30
  -5   2   6    9.10    2.60
  -5   2   6   14.50    2.70
  -5   2   6   14.10    2.00
   5   2   6   15.30    2.70
  -5  -2   6   13.90    2.40
   5   2   6    9.00    2.40
  -5   2  -6   15.50    3.20
   5  -2  -6   19.60    3.60
   5  -2  -6   12.30    2.70
  -5  -2   6   12.40    2.60
  -5  -2   6   10.50    2.10
  -5   2  -6   14.40    2.40
   5   2   6   11.80    2.80
  -5  -2   6   16.40    2.90
  -5   2  -6   18.30    3.30
  -6  -2  -6  105.69    7.60
  -6   2   6   92.99    7.60
   6  -2   6  102.99    7.80
  -6   2   6   94.69    8.10
   6   2  -6  105.29    7.70
  -6  -2  -6  111.49    9.00
   6  -2  -6  106.69    7.70
   6   2   6  102.59    7.90
  -6   2  -6   96.49    7.70
  -6   2  -6  114.69    9.90
  -6   2  -6  107.39    6.90
   6   2   6  105.59    7.50
  -6  -2   6   97.19    7.00
   6  -2  -6   95.79    8.10
  -6  -2   6   97.29    6.70
  -6  -2   6   92.59    7.10
  -6  -2   6  104.69    8.40
  -7  -2  -6    3.90    2.50
   7  -2   6    0.00    2.40
  -7   2   6    0.60    2.20
  -7  -2  -6    4.00    2.40
  -7   2   6    5.20    3.90
  -7   2   6    1.90    2.20
   7   2  -6    2.40    2.70
  -7  -2   6    0.60    1.60
  -7   2  -6    1.80    1.70
  -7  -2   6    0.70    2.20
  -7   2  -6    4.60    2.70
  -7   2  -6    0.60    2.20
  -7  -2   6   -2.50    2.10
   7   2   6    2.50    2.60
   7   2   6   -0.20    2.10
   7  -2  -6   -1.10    4.20
  -8  -2  -6    6.50    2.10
  -8  -2  -6    5.90    2.40
   8   2  -6    7.20    2.50
  -8   2   6    9.50    3.10
   8  -2   6    5.70    2.40
  -8   2  -6    5.50    2.50
  -8  -2   6   10.90    2.70
   8  -2  -6    4.40    2.30
  -8   2  -6    3.80    2.70
   8   2   6    4.90    3.00
  -8  -2   6    9.40    2.40
  -8  -2   6    3.90    2.00
  -9   2   6    1.90    1.20
   9   2  -6    1.00    1.30
  -9  -2  -6   -0.70    0.80
   9  -2   6    0.40    1.20
  -9  -2   6    0.30    0.70
  -9  -2   6    0.20    1.00
  -9   2  -6    0.40    1.20
  -9   2  -6    0.40    1.80
  -9  -2   6    3.20    1.40
   9   2   6    0.80    1.10
   0  -3  -6  487.15   28.80
   0   3   6  481.75   24.50
   0  -3   6  469.35   23.90
   0   3   6  453.25   28.50
  -1   3   6  254.77   17.80
  -1  -3  -6  270.17   18.20
   1  -3   6  237.98   12.80
  -1   3  -6  235.68   14.50
   1   3   6  236.88   17.50
   1   3   6  264.87   13.70
  -1   3  -6  239.38   14.40
   1  -3  -6  251.47   18.30
  -1  -3   6  263.77   13.20
   2  -3   6  573.84   31.00
  -2   3   6  746.03   40.50
  -2   3   6  618.64   33.70
  -2  -3  -6  601.74   37.50
   2   3   6  729.63   40.10
  -2  -3   6  620.64   31.80
  -2   3  -6  599.04   35.20
  -2   3  -6  578.64   34.90
   2  -3  -6  623.54   37.30
  -3   3   6  284.97   22.70
   3   3  -6  323.07   17.30
  -3   3   6  296.77   16.40
  -3  -3  -6  315.87   23.50
  -3   3   6  302.17   15.60
  -3  -3   6  271.37   18.00
  -3  -3   6  295.67   16.40
   3  -3  -6  338.67   25.20
  -3  -3   6  300.77   15.90
  -3   3  -6  253.57   20.30
   3   3   6  300.47   23.80
   4   3  -6  174.88   11.70
  -4   3   6  202.78   10.30
  -4  -3  -6  185.08   10.90
   4  -3   6  183.88   10.90
   4  -3   6  202.08   11.00
  -4   3   6  186.88   11.30
  -4   3   6  188.68   11.50
   4  -3   6  209.18   11.20
   4   3   6  185.28   10.80
  -4  -3   6  193.48   11.20
  -4   3  -6  165.38   10.70
   4   3   6  182.08   11.70
   4  -3  -6  198.18   11.00
   4   3   6  178.78   11.20
  -4  -3   6  193.18   11.40
  -4  -3   6  142.89   11.50
  -4   3  -6  191.68   11.40
  -4  -3   6  195.38   10.80
   5  -3   6   49.90    6.00
  -5   3   6   57.99    5.90
   5   3  -6   48.80    5.90
   5   3  -6   46.50    4.90
  -5   3   6   56.39    5.10
  -5  -3  -6   58.59    5.20
   5  -3   6   35.20    5.60
   5   3   6   61.99    6.40
  -5  -3   6   52.49    4.20
  -5  -3   6   51.59    4.60
   5  -3  -6   50.19    5.40
  -5  -3   6   57.59    5.00
   5  -3  -6   50.29    7.30
  -5   3  -6   51.69    5.20
   5   3   6   53.69    5.00
  -5   3  -6   67.89    7.00
  -5  -3   6   57.49    5.60
   5   3   6   61.09    7.20
  -6   3   6   69.49    6.50
  -6  -3  -6   71.79    6.30
   6  -3   6   76.79    6.40
   6  -3   6   76.79    6.00
   6   3  -6   71.39    6.20
  -6  -3   6   68.29    5.50
  -6  -3   6   78.69    6.20
  -6  -3   6   78.99    6.90
   6   3   6   83.09    6.70
  -6   3  -6   70.19    6.60
   6  -3  -6   80.79    6.20
   6   3   6   73.29    6.20
  -6   3  -6   72.59    5.70
  -6  -3   6   77.19    5.60
  -7  -3  -6   52.19    5.40
  -7   3   6   55.39    6.10
   7  -3   6   36.60    6.50
   7  -3   6   50.09    4.80
  -7  -3   6   59.39    6.90
  -7  -3   6   56.49    5.90
   7   3   6   49.70    5.80
  -7  -3   6   56.69    5.20
   7  -3  -6   49.60    4.70
  -7  -3   6   56.79    5.00
  -7   3  -6   62.09    6.10
  -7   3  -6   58.59    5.50
  -8  -3  -6    1.60    4.40
  -8   3   6    0.90    2.00
  -8   3   6   -0.30    1.70
  -8  -3  -6    2.70    1.80
   8   3  -6   -0.70    1.90
   8  -3   6   -0.40    1.60
  -8  -3   6    1.00    1.70
  -8  -3   6    0.30    1.30
   8   3   6    0.40    1.70
  -8   3  -6   -0.80    1.80
  -8   3  -6    1.80    1.90
  -8  -3   6    0.70    1.60
  -8  -3   6    2.00    1.70
   8   3   6    1.60    1.40
  -9  -3  -6   -0.40    0.80
   9  -3   6   -1.10    0.80
   9   3  -6    0.50    1.40
  -9   3   6    1.00    1.00
  -9  -3   6    1.80    1.40
  -9   3  -6   -0.20    1.40
   0   4   6  515.45   33.20
   0  -4   6  526.25   27.40
   0   4  -6  537.55   27.30
   0  -4  -6  599.34   34.10
   0   4   6  537.65   28.10
   1   4  -6  628.84   31.40
   1  -4   6  601.94   30.80
  -1   4   6  616.14   37.30
  -1  -4  -6  616.74   37.40
  -1  -4   6  624.24   31.20
  -1   4  -6  592.04   31.60
   1   4   6  604.84   31.80
  -1   4  -6  633.74   31.80
   1  -4  -6  658.03   37.60
   1   4   6  573.14   36.90
  -2   4   6  105.79    7.20
   2   4  -6  126.09    7.70
  -2   4   6  172.68   20.90
  -2  -4  -6  109.29   12.90
   2  -4  -6  112.19   13.00
  -2  -4   6  123.69    7.10
  -2   4  -6  106.09   13.40
   2   4   6  125.19   13.60
   2   4   6  108.99    8.50
  -3   4   6  202.88   11.90
   3  -4   6  201.28   11.20
   3  -4   6  191.18   13.40
  -3   4   6  199.38   10.80
   3   4  -6  200.08   12.30
  -3   4   6  191.78   11.60
  -3   4   6  188.78   23.80
  -3  -4  -6  189.38   11.70
   3  -4   6  194.88   11.60
  -3  -4   6  201.98   11.80
   3  -4  -6  187.08   21.70
  -3  -4   6  237.18   13.10
  -3  -4   6  178.18   13.10
   3   4   6  187.58   12.00
   3  -4  -6  205.48   11.10
   4  -4   6   14.30    2.60
   4  -4   6   13.70    2.80
   4  -4   6    9.50    2.10
  -4   4   6   11.50    2.50
   4  -4   6   12.30    2.50
  -4   4   6   17.90    2.10
  -4  -4  -6    6.10    3.00
  -4  -4  -6   14.20    3.00
   4   4  -6   12.20    3.20
  -4   4   6   15.60    3.10
  -4   4  -6   12.20    2.70
  -4  -4   6   11.40    2.40
   4   4   6   14.30    3.10
   4   4   6   13.50    3.40
  -4  -4   6   17.90    3.00
   4   4   6   14.30    2.40
  -4  -4   6   13.90    1.80
  -4   4  -6   13.60    2.40
   4  -4  -6   13.80    2.40
  -5   4   6    7.20    2.30
   5  -4   6   15.50    3.00
   5  -4   6   14.20    4.10
  -5   4   6   12.40    3.00
   5   4  -6   10.60    2.80
   5  -4   6   11.20    2.80
   5   4   6   11.90    4.00
  -5  -4   6   12.80    3.40
  -5  -4   6   12.30    2.00
   5   4   6   16.00    2.70
  -5   4  -6   15.00    3.20
   5  -4  -6   12.00    2.40
  -5  -4   6   10.50    2.40
  -5   4  -6   20.20    3.90
   6  -4   6   28.10    4.10
   6   4  -6   19.20    3.30
   6  -4   6   19.80    3.10
  -6   4   6   22.10    3.80
  -6   4   6   21.10    3.90
   6  -4   6   24.70    3.80
  -6   4  -6   25.60    3.30
  -6  -4   6   17.20    3.20
   6   4   6   17.50    3.50
  -6   4  -6   22.20    4.00
  -6  -4   6   19.30    2.60
   6   4   6   21.40    3.40
   6  -4  -6   24.10    3.00
   7  -4   6    4.50    2.40
  -7   4   6    7.20    3.70
  -7   4   6    0.60    1.90
  -7  -4  -6    0.40    1.80
   7  -4   6    2.90    2.20
   7   4  -6    1.70    2.40
  -7  -4   6    2.90    2.00
   7   4   6    2.10    2.00
  -7  -4   6    3.40    2.00
  -7   4  -6    0.10    2.50
  -7  -4   6    3.90    1.40
  -7   4  -6    2.60    2.60
   7   4   6    2.40    2.80
  -7  -4   6    4.30    2.00
  -7   4  -6    2.30    1.70
  -8   4   6    3.50    1.60
   8   4  -6    0.80    2.70
  -8   4   6   -1.20    1.90
   8  -4   6    0.40    1.50
  -8  -4  -6   -0.50    1.30
  -8  -4  -6    1.40    1.70
  -8   4  -6    0.10    2.10
  -8   4  -6    1.30    2.10
  -8  -4   6    1.60    1.30
  -8  -4   6    1.90    1.90
   8   4   6   -0.70    1.40
   9   4  -6    2.50    1.10
  -9   4   6    1.70    0.90
  -9  -4  -6    2.30    0.90
  -9  -4   6    2.10    1.10
   0   5   6   10.90    3.40
   0  -5   6   14.30    2.00
   0   5  -6   14.70    2.40
   0  -5  -6   11.10    5.60
   0  -5  -6   23.50    3.30
   0   5   6   18.70    7.00
  -1   5   6   74.09   11.00
   1   5  -6   73.89    5.10
   1  -5   6   63.09    5.10
  -1  -5  -6   56.09   11.20
  -1  -5  -6   62.99    5.20
   1   5   6   50.59   10.70
   1  -5  -6   69.39    5.40
   1  -5  -6   71.69   12.10
   1   5   6   67.69    5.40
  -2  -5  -6  228.98   13.20
   2  -5   6  226.68   13.30
   2  -5   6  235.18   13.70
  -2  -5  -6  232.18   13.40
   2  -5   6  228.88   13.00
   2   5  -6  237.68   13.60
   2  -5  -6  241.08   13.50
  -2  -5   6  230.78   13.30
   2   5   6  234.98   14.00
  -2   5  -6  211.08   18.60
  -2  -5   6  234.08   13.30
  -2  -5   6  250.07   15.20
  -3   5   6   62.59    5.20
  -3   5   6   56.59    5.10
   3  -5   6   58.99    4.60
   3  -5   6   63.89    6.40
   3   5  -6   62.39    5.80
  -3  -5  -6   66.39    5.40
  -3   5   6   66.99    4.40
   3  -5   6   63.59    5.30
   3  -5   6   63.99    5.40
  -3  -5   6   69.19    5.40
  -3  -5   6   66.49    5.10
   3  -5  -6   55.29    4.40
   3  -5  -6   61.99    5.20
  -3   5  -6   64.79    5.40
  -3  -5   6   59.39    5.20
   3   5   6   57.59    5.80
  -3   5  -6   54.29    5.50
  -3  -5   6   58.49    4.80
  -3  -5   6   58.19    5.90
   4  -5   6   42.90    5.10
   4   5  -6   37.70    5.40
  -4  -5  -6   44.00    4.50
  -4   5   6   42.20    4.90
   4  -5   6   41.00    6.00
  -4   5   6   44.10    4.40
   4  -5   6   43.40    4.60
   4  -5   6   46.70    4.60
  -4   5  -6   47.50    4.90
   4   5   6   42.90    5.00
  -4  -5   6   54.99    7.80
   4  -5  -6   45.00    4.40
  -4  -5   6   40.70    6.30
  -4  -5   6   42.50    4.60
  -4  -5   6   46.80    4.10
  -4  -5   6   38.50    4.10
  -4   5  -6   44.10    4.30
   4  -5  -6   40.80    3.70
   4   5   6   53.29    6.00
  -5   5   6   11.30    3.10
   5   5  -6    8.30    2.80
  -5   5   6   10.10    2.80
   5  -5   6   13.00    2.90
   5  -5   6    8.80    3.00
   5  -5   6    7.00    2.20
   5  -5   6   15.60    3.10
  -5  -5   6   14.70    3.00
  -5  -5   6   15.30    2.60
  -5   5  -6    7.70    2.50
  -5   5  -6   12.50    2.50
   5   5   6   11.60    2.80
  -5  -5   6   10.50    1.60
  -5  -5   6    7.80    2.10
  -5  -5   6   11.70    3.20
  -6   5   6   53.19    5.90
   6   5  -6   51.29    5.40
   6  -5   6   52.69    5.40
   6  -5   6   49.20    5.00
  -6   5   6   52.39    5.40
  -6   5  -6   52.39    4.80
  -6   5  -6   53.89    5.70
   6   5   6   51.39    5.20
  -6  -5   6   52.69    5.40
  -6  -5   6   49.50    5.20
   7  -5   6    4.50    2.00
  -7   5   6   16.60    3.20
  -7  -5  -6    6.40    2.00
   7  -5   6    8.00    2.50
   7   5  -6    7.60    2.60
  -7  -5  -6    7.60    2.10
  -7   5   6   12.40    2.70
  -7   5  -6   12.90    3.20
  -7   5  -6   11.20    2.20
  -7  -5   6   11.50    2.50
  -7  -5   6   12.90    2.80
   7   5   6   13.40    2.50
  -8   5   6    1.90    1.20
   8   5  -6    3.40    1.80
  -8  -5  -6    1.80    1.10
  -8  -5  -6    3.60    1.40
  -8   5  -6    4.40    2.00
  -8  -5   6    0.10    1.50
  -8  -5   6    4.40    1.90
   8   5   6    5.10    1.40
   0   6  -6  230.58   12.50
   0  -6   6  216.88   12.70
   0  -6  -6  239.58   13.50
   0   6   6  234.28   13.60
   0  -6  -6  223.58   13.90
   0  -6   6  229.28   13.40
   0  -6   6  239.08   13.60
  -1  -6  -6   15.70    3.00
   1  -6   6   24.10    3.60
   1   6  -6   23.80    3.10
   1  -6   6   26.60    3.10
   1  -6   6   21.70    3.60
  -1  -6  -6   29.40    3.80
  -1  -6   6   27.30    3.70
   1   6   6   17.00    3.00
  -1  -6   6   21.90    2.90
  -1  -6   6   24.90    3.40
  -1  -6   6   24.80    2.90
   1  -6  -6   29.70    3.80
   1  -6  -6   28.70    3.80
  -1  -6   6   23.40    3.60
  -1  -6   6   26.40    3.80
  -2   6   6   55.29    5.60
   2  -6   6   63.99    5.40
   2  -6   6   64.59    5.70
  -2  -6  -6   52.19    5.40
  -2  -6  -6   56.59    4.90
   2  -6   6   66.49    5.10
   2   6  -6   57.49    5.50
   2  -6  -6   57.49    5.20
  -2   6  -6   52.69    5.00
  -2  -6   6   54.99    5.00
  -2  -6   6   53.59    5.00
  -2  -6   6   55.69    5.20
  -2  -6   6   48.60    4.80
  -2  -6   6   49.80    5.20
  -2  -6   6   58.39    4.70
   2   6   6   61.69    5.80
   3  -6   6    4.40    2.80
   3  -6   6    3.30    1.60
  -3   6   6    8.80    2.20
  -3   6   6    5.70    1.70
   3  -6   6    6.10    2.80
  -3  -6  -6    5.30    2.50
   3   6  -6    6.60    4.20
  -3  -6   6    4.00    2.10
  -3  -6   6    5.00    2.30
  -3   6  -6    3.90    2.20
   3   6   6    5.10    2.70
  -3   6  -6    6.00    2.20
   3  -6  -6    9.70    2.70
  -3  -6   6    3.40    1.50
  -3  -6   6    3.50    2.30
  -3  -6   6    9.00    4.70
   4  -6   6    2.50    2.50
   4  -6   6   -0.80    1.80
  -4   6   6    2.70    1.90
  -4   6   6   -3.80    3.30
   4  -6   6    0.00    2.40
   4  -6   6   -0.10    2.10
  -4  -6  -6    0.80    2.30
  -4  -6   6    2.90    7.70
   4  -6  -6   -2.10    2.20
  -4   6  -6   -0.90    1.80
  -4  -6   6    0.10    1.90
  -4  -6   6   -3.00    2.00
  -4   6  -6   -0.20    1.70
  -4  -6   6   -2.00    1.60
   4   6   6    1.20    1.90
  -5   6   6    9.90    2.80
   5  -6   6    8.00    2.80
   5  -6   6    6.70    3.00
   5  -6   6    6.40    2.00
  -5   6   6   13.50    3.00
   5  -6   6    3.20    2.30
   5   6  -6    9.20    2.70
   5   6   6    7.10    2.50
  -5   6  -6    8.10    2.00
  -5   6  -6   10.90    3.00
  -5  -6   6    6.70    2.50
  -5  -6   6    9.40    2.80
   6  -6   6   -0.50    1.90
  -6   6   6    0.60    1.90
   6   6  -6   -2.00    2.00
  -6   6   6    0.80    2.90
   6  -6   6   -2.90    1.70
   6   6   6    1.10    2.00
  -6   6  -6   -1.30    1.40
  -6   6  -6   -0.60    2.60
  -6  -6   6   -0.30    2.00
  -6  -6   6   -0.90    1.70
   7   6  -6   15.40    2.80
  -7   6   6   10.40    2.40
  -7  -6  -6   10.90    2.30
  -7  -6  -6    8.80    2.00
   7   6   6   17.10    2.60
  -7  -6   6   17.70    2.90
  -7   6  -6   15.30    3.30
  -7   6  -6   14.60    2.20
  -8  -6  -6    1.10    1.20
  -8  -6  -6    0.50    0.90
  -8  -6  -6    0.70    0.80
  -8   6   6    0.00    0.90
  -8  -6   6    1.80    1.00
  -8  -6   6    1.20    1.30
   0  -7  -6    7.30    3.40
   0  -7   6   11.80    3.10
   0  -7   6   10.40    2.20
   0  -7   6    3.40    2.80
   0  -7   6   12.90    3.20
   0   7   6   11.10    3.10
   0  -7  -6    6.10    2.60
  -1  -7  -6   51.19    5.50
   1  -7   6   42.60    4.50
   1  -7   6   44.30    5.20
  -1  -7  -6   57.49    9.10
   1  -7   6   46.60    4.90
   1   7   6   47.00    5.50
  -1  -7   6   52.69    5.40
   1  -7  -6   50.69    5.20
  -1  -7   6   42.90    4.60
  -1  -7   6   51.49    4.70
   1  -7  -6   50.39    4.80
  -1  -7   6   39.00    4.50
  -2  -7  -6   15.70    3.10
   2   7  -6   19.40    5.90
   2  -7   6   19.50    4.10
   2  -7   6   18.50    3.70
   2  -7   6   22.10    4.10
  -2  -7  -6   21.90    3.90
  -2  -7   6   17.90    3.10
  -2  -7   6   13.40    2.70
   2  -7  -6   20.70    3.60
   2  -7  -6   17.80    3.10
  -2  -7   6   17.90    4.20
   3  -7   6    3.30    2.80
  -3   7   6   -1.00    1.80
   3  -7   6    4.50    3.00
   3  -7   6    4.60    3.50
  -3  -7  -6    3.50    2.60
  -3  -7   6   22.80    7.50
  -3  -7   6    0.80    2.10
   3  -7  -6    1.70    2.10
  -3  -7   6    4.20    2.70
  -3   7  -6    5.90    2.80
  -3  -7   6    5.50    6.50
   4  -7   6   43.30    4.90
  -4  -7  -6   48.50    4.90
   4  -7   6   33.30    5.20
   4  -7   6   41.70    5.00
  -4   7   6   43.20    4.70
   4   7   6   39.30    4.60
  -4  -7   6   46.20    5.00
   4  -7  -6   42.40    4.50
  -4  -7   6   43.90    5.00
  -4   7  -6   39.70    5.20
  -4  -7   6   30.00    8.30
   5   7  -6   13.40    2.90
   5  -7   6   11.10    2.60
  -5   7   6    4.00    2.50
   5  -7   6    6.20    3.40
   5  -7   6    9.60    3.00
  -5  -7   6    8.80    2.40
  -5   7  -6    7.60    2.30
  -5  -7   6    6.50    2.70
  -5   7  -6   13.20    4.80
  -6  -7  -6    3.40    1.70
  -6   7   6    5.00    2.10
   6  -7   6    0.50    2.30
   6   7  -6    4.60    2.80
  -6   7  -6    6.90    2.90
  -6  -7   6    1.60    1.80
  -6  -7   6    3.70    2.00
  -6   7  -6    5.40    1.90
   6   7   6    1.60    1.90
  -7   7   6    1.40    1.20
  -7  -7  -6    1.50    1.50
  -7  -7  -6    1.40    1.00
   7   7  -6    0.80    1.40
  -7  -7  -6    1.10    1.30
   7   7   6   -1.30    1.40
  -7  -7   6   -0.20    1.30
  -7   7  -6    0.50    1.20
  -7  -7   6   -1.30    1.40
   0  -8  -6   60.09    5.90
   0  -8   6   62.09    7.30
   0  -8   6   63.29    6.10
   0  -8  -6   61.49    5.90
  -1  -8  -6   13.10    3.10
   1  -8   6   14.60    4.30
   1  -8   6   10.00    3.60
  -1  -8  -6   13.30    3.40
   1  -8   6   10.30    3.30
  -1  -8   6    5.40    2.50
  -1  -8   6   12.30    5.30
   1  -8  -6   11.00    3.20
  -1  -8   6    7.70    3.70
   1  -8  -6   10.50    3.10
   2  -8   6   -2.20    3.20
  -2  -8  -6    0.50    2.90
   2  -8   6    0.10    3.80
  -2  -8  -6   -0.60    2.10
   2  -8   6    1.50    2.60
  -2  -8   6   -7.60    7.30
   2  -8  -6    1.90    2.60
   2  -8  -6   -1.20    2.40
  -2  -8   6    1.10    1.90
  -2  -8   6    0.10    4.90
  -2  -8   6    1.30    2.50
  -3  -8  -6   41.40    5.00
   3  -8   6   40.00    6.00
   3  -8   6   45.10    5.20
   3  -8   6   40.70    5.10
  -3  -8   6   39.30    5.10
   3  -8  -6   43.60    4.80
  -3  -8   6   41.20    4.90
  -3  -8   6   16.60    8.50
   4  -8   6    1.70    2.10
   4  -8   6   -1.10    4.20
  -4  -8  -6    2.80    3.50
   4  -8   6    1.40    1.90
  -4  -8   6    1.30    2.50
  -4  -8   6   -0.60    1.80
  -4   8  -6   -1.00    1.00
   4   8   6    3.10    3.00
   4  -8  -6    2.60    1.80
  -4  -8   6   -2.60    7.00
   5  -8   6    6.00    1.90
  -5   8   6   -2.30    1.80
   5   8  -6    0.60    1.90
   5  -8   6   -1.80    4.20
  -5  -8   6    2.20    1.80
  -5  -8   6    0.90    2.60
  -5   8  -6    0.80    1.70
   5   8   6    2.60    1.90
  -5  -8   6    1.80    2.00
  -6   8   6   -0.70    1.90
  -6  -8  -6    0.90    1.70
  -6  -8  -6   -0.60    1.00
   6  -8   6   -0.10    1.50
   6   8  -6   -1.20    1.50
   6   8   6    1.50    1.80
  -6   8  -6    0.30    1.60
  -6  -8   6   -0.10    1.60
  -6  -8   6    0.20    1.50
   7   8  -6    1.10    1.10
  -7  -8  -6    0.70    0.90
  -7  -8   6    0.90    1.00
   0  -9  -6    4.20    2.90
   0  -9  -6    2.90    3.30
   0  -9   6    3.00    7.90
   0  -9   6    3.80    3.70
   1  -9   6   22.50    4.90
   1  -9   6   14.20    8.30
  -1  -9  -6    8.60    2.90
  -1  -9  -6   12.30    3.40
  -1  -9   6   21.00    5.50
   1  -9  -6   15.40    3.40
  -1  -9   6   20.20    9.60
  -1  -9   6    8.80    2.50
   1  -9  -6   13.20    4.00
  -2  -9  -6    8.80    2.70
   2  -9   6   14.70    3.90
   2  -9   6    4.20    5.60
  -2  -9   6    6.40    2.60
  -2  -9   6    1.20   11.40
   2  -9  -6    8.70    3.10
   2  -9  -6   10.10    2.70
  -2   9  -6   15.00    2.50
  -2  -9   6    7.30    7.10
  -3  -9  -6    2.00    2.20
   3  -9   6   -4.90    6.10
   3  -9   6    1.30    2.50
   3  -9   6    0.00    1.70
  -3  -9   6   -2.00    2.30
  -3  -9   6    0.20    8.10
  -3   9  -6    0.50    1.40
  -3  -9   6    2.10    2.00
   3  -9  -6   -0.70    1.70
  -4  -9  -6    8.00    2.50
   4  -9   6    5.50    2.30
   4  -9   6    3.40    5.90
  -4  -9   6   -1.80    4.10
  -4   9  -6    8.10    1.90
  -4  -9   6    8.70    5.20
   4   9   6    7.40    2.10
  -4  -9   6    8.20    2.30
   5  -9   6    6.80    4.30
   5  -9   6    3.00    1.80
  -5  -9  -6    6.00    1.80
  -5  -9  -6    9.10    1.20
   5   9  -6   16.40    2.20
  -5   9  -6   14.10    2.30
   5   9   6   11.40    2.60
  -5  -9   6   10.70    2.30
   6   9  -6    0.20    1.40
  -6  -9  -6    0.20    0.90
   6   9   6    1.50    1.20
  -6  -9   6    0.30    1.00
   0 -10   6    0.50    4.10
   0 -10  -6   -0.70    2.00
   0 -10  -6    0.00    2.30
   0 -10   6    4.50    9.90
   1 -10   6   13.00    4.10
   1 -10   6   10.00    9.00
  -1 -10  -6    8.80    2.70
  -1 -10   6   13.20    6.40
   1 -10  -6   13.50    2.90
   1 -10  -6   13.00    2.90
  -1 -10   6   13.30   11.20
  -2 -10  -6   10.40    2.80
   2 -10   6   15.70    8.60
  -2 -10  -6    8.80    2.50
   2 -10   6    9.10    3.50
  -2 -10   6    9.80    2.40
  -2 -10   6   18.80    8.70
  -2 -10   6    8.80   10.90
   2 -10  -6    7.10    2.40
   3 -10   6    0.60    7.20
  -3 -10  -6    0.50    1.90
  -3 -10  -6    2.50    1.60
   3 -10   6    4.60    3.00
  -3 -10   6    1.30    1.50
   3  10   6    5.20    1.90
  -3 -10   6    5.20    8.90
  -4 -10  -6    1.90    1.50
   4 -10   6    2.20    1.90
   4 -10   6    2.70    5.50
   4  10   6    0.80    1.40
  -4 -10   6    2.10    1.70
  -4 -10   6    0.40    1.10
  -5 -10  -6    0.70    1.50
  -5 -10   6    1.00    1.10
   5  10   6   -0.50    1.10
   0 -11   6    2.20   10.80
   0 -11   6    9.20    7.30
   0 -11  -6    2.20    1.40
   1 -11   6    5.70    8.70
  -1 -11  -6    0.60    1.40
   1 -11   6   -1.70    4.30
  -1 -11   6    2.30    7.50
  -1 -11   6    3.90    6.50
   1 -11  -6    0.10    1.30
   2 -11   6    8.20    3.70
  -2 -11  -6    2.60    1.50
   2 -11   6    3.90    6.80
  -2 -11   6   -0.20    5.90
  -2 -11   6    4.90    2.00
   3 -11   6    0.20    5.30
   3 -11   6    1.30    2.90
  -3 -11   6    0.40    2.40
   3  11   6   -0.10    1.20
   4 -11   6   -0.50    1.30
   4  11   6    1.40    1.00
   0 -12   6    2.00    2.40
   0 -12   6   -1.50    4.50
   1 -12   6    0.10    3.80
   1 -12   6    0.00    3.10
  -1 -12   6    2.80    3.60
   1  12   6    0.00    1.00
   0   0  -7   -0.30    0.90
   0   0   7    0.90    1.40
   0   0  -7    1.60    1.70
  -1   0   7   82.49    7.30
   1   0   7   87.49    7.80
   1   0  -7   78.39    7.00
   1   0  -7   68.99    5.10
  -1   0  -7   89.29    5.10
  -1   0   7   82.79    5.00
   1   0   7   87.39    5.20
  -1   0  -7   85.09    8.00
   2   0   7    3.60    2.60
  -2   0  -7    2.20    1.00
   2   0   7    2.60    1.20
  -2   0   7    3.90    1.60
  -2   0  -7    1.50    2.40
   2   0  -7    1.40    1.80
  -2   0   7    5.10    2.70
  -3   0   7  394.26   19.30
   3   0  -7  391.76   24.10
   3   0   7  370.26   25.60
   3   0   7  386.26   19.40
  -3   0   7  344.37   24.10
  -3   0   7  353.66   20.00
  -3   0  -7  359.46   25.30
   4   0   7   64.19    5.00
  -4   0   7   59.59    4.70
   4   0   7   70.09    4.90
  -4   0  -7   53.59    4.50
   4   0   7   58.69    4.80
  -4   0   7   74.89    6.50
  -4   0   7   66.19    4.50
   5   0   7    0.70    1.10
  -5   0  -7    0.10    1.70
  -5   0  -7    0.50    1.30
  -5   0   7    0.30    1.70
   5   0   7    0.80    1.80
   5   0   7   -0.10    3.10
  -5   0   7    0.40    1.50
  -5   0   7    0.40    1.70
   5   0   7    0.30    1.60
  -5   0   7   -1.70    1.20
   5   0  -7   -1.70    1.90
   6   0   7  139.29    8.70
  -6   0   7  153.48    9.60
  -6   0   7  158.38    9.00
  -6   0  -7  141.79    8.90
  -6   0  -7  141.09   10.00
   6   0  -7  167.18   10.10
   6   0   7  150.28   10.00
  -6   0   7  147.89   10.50
  -6   0  -7  155.88   10.10
  -7   0   7    1.20    2.60
  -7   0  -7   -3.10    2.00
  -7   0   7    1.60    1.80
  -7   0   7    0.80    1.70
   7   0   7   -0.80    2.20
  -7   0  -7    0.30    1.30
  -7   0  -7    1.90    2.30
   7   0  -7    1.00    2.50
  -8   0   7    5.00    1.80
  -8   0  -7   11.20    3.20
  -8   0   7   10.30    2.90
   8   0   7    9.90    2.70
   8   0  -7    6.80    2.40
  -8   0   7   11.00    2.40
  -8   0  -7    8.10    2.20
   9   0   7   -0.20    1.30
   9   0  -7    1.60    1.00
  -9   0   7    0.80    0.90
  -9   0  -7    0.80    1.20
  -9   0  -7   -3.40    1.50
   0  -1  -7  450.35   23.80
   0  -1   7  484.35   25.40
   0  -1  -7  434.76   29.00
   0   1   7  469.15   26.90
   0   1  -7  468.15   25.30
   0  -1   7  469.25   23.40
   0   1  -7  459.65   23.50
   1   1  -7   62.69    5.30
   1  -1   7   61.79    3.80
  -1   1   7   62.99    6.90
  -1  -1  -7   65.99    4.40
  -1  -1  -7   61.19    8.40
   1  -1   7   63.39    6.30
  -1   1  -7   61.19    6.20
   1   1   7   60.49    4.40
  -1   1  -7   60.79    3.80
   1  -1  -7   59.89    4.40
   1   1   7   66.79    8.50
  -1  -1   7   67.19    5.50
   1  -1  -7   72.79    7.00
  -1  -1   7   62.29    4.00
  -2  -1  -7  297.07   17.40
  -2   1   7  328.77   17.70
  -2  -1  -7  345.97   22.10
  -2   1   7  303.57   17.80
   2  -1   7  332.17   16.70
   2  -1   7  328.97   21.40
  -2   1   7  344.07   21.60
   2   1  -7  322.37   19.50
  -2   1  -7  356.06   21.60
  -2  -1   7  331.17   17.10
   2  -1  -7  345.87   21.20
   2   1   7  339.17   22.00
  -2  -1   7  339.47   17.80
   2   1   7  330.97   17.60
  -2   1  -7  316.67   16.80
   3  -1   7  104.69    6.30
  -3   1   7  130.59    7.90
  -3  -1  -7  116.09   12.50
  -3   1   7  126.39    6.90
  -3   1   7  103.49   11.30
   3  -1   7  112.39   11.60
   3  -1   7  119.89    6.60
  -3  -1   7  115.59   11.00
   3  -1  -7  127.89   11.90
  -3  -1   7  113.99    7.70
   3   1   7  113.99   13.60
  -3   1  -7  123.39   12.20
  -3  -1   7  122.19    7.00
   3   1   7  117.09    7.30
  -4  -1  -7    1.40    5.90
   4  -1   7    6.80    1.70
   4  -1   7    4.70    2.60
   4  -1   7    2.30    1.30
  -4   1   7    1.80    1.20
  -4   1   7    4.70    2.10
   4  -1   7    2.70    1.90
  -4  -1   7    3.10    1.50
   4  -1  -7    2.40    1.80
   4   1   7    3.30    1.60
  -4  -1   7    3.00    2.00
   4   1   7    2.90    1.60
   4   1   7    5.30    1.80
  -4   1  -7    4.10    1.70
   4   1   7   22.80    7.30
  -4  -1   7    3.00    1.50
  -5   1   7   19.40    2.90
  -5  -1  -7   16.90    2.90
   5  -1   7   21.70    3.40
  -5   1   7   21.50    3.90
   5   1  -7   18.40    3.10
   5  -1   7   13.80    2.30
   5  -1  -7   17.90    3.10
  -5  -1   7   23.80    3.30
  -5   1  -7   21.20    3.40
   5   1   7   20.00    3.20
   5   1   7   15.10    2.80
  -5   1  -7   18.90    2.60
  -5  -1   7   17.80    3.60
  -5  -1   7   15.50    3.80
  -5   1  -7   19.00    3.40
   5  -1  -7   16.60    6.40
   5   1   7   17.20    2.80
  -5  -1   7   18.40    2.70
  -6  -1  -7    5.00    2.40
   6   1  -7    3.80    2.70
   6  -1   7    4.80    2.60
  -6  -1  -7    7.60    2.60
  -6   1   7    4.80    2.10
  -6   1   7    2.40    1.90
  -6  -1  -7    4.90    1.50
  -6   1  -7    6.70    2.80
   6   1   7    3.00    2.60
  -6  -1   7    8.20    2.30
   6   1   7    3.80    2.00
  -6  -1   7    3.90    2.40
  -6   1  -7    4.40    1.80
  -6  -1   7    7.70    4.30
  -6  -1   7    3.10    1.70
  -6   1  -7    6.00    2.50
   6  -1  -7    3.80    2.50
   7   1  -7   77.99    6.60
  -7   1   7   75.59    6.20
  -7  -1  -7   67.69    6.30
  -7   1   7   68.09    7.00
   7  -1   7   66.59    6.30
  -7   1   7   76.99    5.90
  -7  -1  -7   66.49    6.40
  -7   1  -7   63.69    6.10
   7   1   7   58.49    6.20
  -7  -1   7   91.49   10.20
  -7   1  -7   73.19    6.70
  -7  -1   7   71.29    5.70
  -7   1  -7   61.19    4.90
  -7  -1   7   64.79    5.70
   7  -1  -7   87.39    6.80
  -8   1   7    1.60    1.60
  -8   1   7    3.80    1.70
   8  -1   7    3.80    2.00
   8   1  -7    1.60    2.20
  -8  -1  -7    1.00    2.10
  -8   1   7    2.10    2.30
  -8  -1  -7   -0.50    1.60
   8  -1  -7    1.30    2.20
  -8   1  -7    2.90    2.40
  -8   1  -7   -1.00    1.60
  -8  -1   7    0.50    1.80
   8   1   7    1.00    1.90
  -8  -1   7    4.50    2.60
  -8  -1   7    2.90    1.60
   9  -1   7   -0.50    1.10
   9   1  -7    1.20    1.30
  -9   1   7    1.20    1.20
  -9  -1  -7    1.70    1.20
  -9   1  -7    1.00    1.90
  -9   1  -7    0.70    1.10
   9   1   7    0.40    1.00
  -9  -1   7    0.30    0.80
  -9  -1   7    1.60    1.10
   0  -2   7  267.17   15.10
   0  -2  -7  282.97   18.60
   0   2   7  292.77   15.00
   0  -2   7  279.27   14.40
   0   2  -7  276.37   15.10
   0   2   7  281.87   18.60
  -1  -2  -7  138.49   12.10
   1  -2   7  143.69   10.30
   1  -2   7  146.69    7.90
  -1   2   7  151.38   12.10
   1   2   7  141.99   11.90
   1   2   7  159.58    8.70
  -1   2  -7  161.68   10.40
  -1   2  -7  140.29    7.80
  -1  -2   7  153.38    8.50
  -1  -2   7  157.18    8.30
   1  -2  -7  147.29   12.00
  -2   2   7  907.11   48.20
  -2   2   7  878.81   48.70
  -2   2   7  949.90   53.99
   2  -2   7  930.01   47.70
  -2  -2  -7  988.60   54.59
   2  -2  -7  988.60   53.69
  -2  -2   7  982.60   50.19
  -2   2  -7  994.50   52.59
  -2  -2   7 1008.40   48.40
   2   2   7 1045.00   48.90
  -3  -2  -7   85.49   11.30
  -3   2   7   91.59    6.60
  -3   2   7   95.99    5.70
  -3   2   7   98.29   13.00
   3   2   7   80.19   10.90
  -3  -2   7   84.29    8.90
  -3  -2   7   97.99    6.60
   3   2   7   89.49    6.40
   3  -2  -7  109.49   13.20
  -3   2  -7   78.69   10.10
  -3  -2   7   93.59    5.90
   4  -2   7   58.09    4.70
   4  -2   7   59.59    4.60
  -4   2   7   61.59    5.50
  -4  -2  -7   59.79    4.20
  -4   2   7   60.59    4.10
  -4  -2  -7   49.10    4.90
  -4   2   7   58.89    5.00
   4  -2   7   58.39    5.50
   4   2   7   61.49    4.80
  -4  -2   7   48.50    7.00
   4  -2  -7   57.59    5.20
  -4  -2   7   51.49    5.00
  -4  -2   7   67.69    5.70
   4   2   7   59.99    4.70
   4   2   7   60.89    5.30
  -5   2   7    9.30    2.60
  -5  -2  -7    8.10    1.60
  -5   2   7   10.40    2.00
   5  -2   7    9.70    2.50
   5   2  -7   15.40    4.10
   5  -2   7   10.50    2.10
   5   2  -7    7.00    2.00
  -5   2   7   11.90    3.10
  -5  -2  -7    9.60    2.40
  -5   2   7   11.10    2.70
   5   2   7   16.40    3.30
  -5   2  -7   10.00    2.80
  -5  -2   7   12.50    2.50
  -5  -2   7    8.30    2.60
   5   2   7    8.30    2.40
  -5   2  -7   10.10    2.90
   5   2   7    7.40    2.30
   5  -2  -7    9.30    2.40
  -5  -2   7    7.60    2.10
  -5  -2   7    9.10    2.10
  -5   2  -7   11.40    2.40
   6  -2   7   44.10    4.50
  -6   2   7   45.50    5.70
  -6   2   7   36.90    4.40
  -6   2   7   49.60    5.00
  -6  -2  -7   48.80    5.40
   6  -2   7   40.60    5.10
   6   2  -7   49.90    5.50
   6  -2  -7   55.59    5.40
   6   2   7   44.70    5.30
   6   2   7   63.49    5.00
  -6  -2   7   55.99    6.20
  -6  -2   7   54.49    4.60
  -6   2  -7   43.90    5.40
  -6   2  -7   49.80    4.50
  -6   2  -7   46.00    5.40
  -6  -2   7   51.19    4.70
  -6  -2   7   40.40    5.60
  -7   2   7   -0.50    1.90
  -7   2   7    0.40    2.10
  -7  -2  -7    1.70    2.40
  -7  -2  -7    2.60    2.30
  -7   2   7    6.00    2.90
   7  -2   7    1.90    2.50
   7   2  -7    0.50    2.60
  -7   2  -7    0.00    2.40
  -7  -2   7    1.50    1.60
  -7   2  -7    3.10    2.30
  -7  -2   7    2.20    2.80
  -7  -2   7    1.40    1.80
  -7  -2   7    2.60    2.00
   7  -2  -7    0.90    2.50
  -7   2  -7    1.80    2.20
  -8   2   7    3.20    2.40
   8  -2   7    0.80    1.30
  -8  -2  -7    1.60    1.90
  -8   2   7    0.30    1.50
   8   2  -7    0.90    2.00
  -8  -2  -7    1.30    1.70
   8  -2   7    1.80    2.00
  -8  -2   7    4.60    2.10
   8  -2  -7   -1.30    1.90
  -8   2  -7    2.10    1.90
  -8   2  -7    0.10    2.00
   8   2   7   -2.30    1.70
  -8  -2   7    0.60    1.20
   9   2  -7   -0.60    1.10
  -9  -2  -7    1.50    1.10
  -9   2   7    1.20    1.00
   9  -2   7    0.30    1.00
  -9   2  -7    2.20    1.70
  -9  -2   7    0.60    1.10
  -9   2  -7   -1.00    1.50
  -9  -2   7    1.30    1.10
   9   2   7    1.40    1.10
   0  -3  -7  243.58   17.10
   0   3   7  229.78   12.40
   0   3   7  212.58   16.50
   0  -3   7  207.48   12.70
  -1   3   7  246.28   25.00
   1  -3   7  272.57   13.90
  -1  -3  -7  265.57   19.40
  -1  -3   7  265.27   14.20
   1  -3  -7  275.47   20.70
   1   3   7  270.17   14.70
  -1   3  -7  272.37   15.80
   1   3   7  278.17   19.30
  -2   3   7  261.87   20.50
  -2   3   7  258.57   14.90
  -2  -3  -7  272.87   20.60
   2  -3   7  285.87   13.90
   2   3   7  273.27   20.30
  -2   3  -7  273.87   17.80
   2  -3  -7  300.37   20.70
  -2  -3   7  273.57   14.60
   2   3   7  265.67   15.10
  -3  -3  -7  294.07   24.70
  -3   3   7  305.67   17.40
  -3   3   7  303.97   16.60
  -3   3   7  286.07   25.60
   3  -3   7  308.27   17.00
   3   3  -7  329.77   17.80
  -3  -3  -7  325.97   17.30
   3  -3   7  341.17   17.00
  -3   3  -7  309.77   27.30
   3  -3  -7  314.67   17.00
  -3  -3   7  319.17   17.40
   3   3   7  335.07   26.00
  -3  -3   7  302.97   17.30
  -3  -3   7  321.87   16.90
   3   3   7  312.97   17.60
   3   3   7  314.97   16.90
   3  -3  -7  365.86   26.80
   4  -3   7    7.30    1.90
  -4   3   7    6.90    3.40
   4  -3   7    4.80    1.80
  -4   3   7    9.10    1.80
  -4  -3  -7    5.90    2.20
   4  -3   7    2.30    2.10
   4  -3   7    7.70    2.20
   4   3  -7    3.70    2.30
  -4  -3  -7    9.40    2.30
  -4   3   7    8.20    2.30
  -4   3  -7    6.70    1.80
   4  -3  -7    7.70    2.20
   4   3   7    4.50    2.10
   4   3   7    5.80    1.90
  -4  -3   7    5.80    1.80
  -4  -3   7    7.20    2.20
  -4  -3   7    6.70    1.70
  -4  -3   7    5.90    1.90
   4   3   7    2.20    2.30
   5  -3   7    9.10    2.60
  -5   3   7   13.50    3.30
   5  -3   7    9.30    2.10
  -5  -3  -7   16.80    2.90
   5  -3   7   13.00    2.80
   5   3  -7    9.30    2.60
  -5   3   7   16.20    3.30
  -5   3   7   15.30    2.90
   5   3  -7   10.80    3.50
   5   3   7    9.30    2.40
  -5   3  -7   12.40    2.90
  -5  -3   7    7.80    2.10
   5   3   7    4.10    2.10
  -5   3  -7   10.50    2.10
  -5  -3   7   11.10    2.80
   5   3   7    4.60    2.50
   5  -3  -7   13.40    2.80
  -5  -3   7   15.30    3.00
  -6   3   7    1.30    2.10
  -6  -3  -7   -1.50    2.30
   6  -3   7    1.70    1.70
   6   3  -7    0.50    2.40
  -6   3   7    0.30    2.40
   6  -3   7   -0.50    2.10
  -6   3  -7    5.00    2.50
  -6  -3   7   -1.50    1.50
   6   3   7   -0.10    2.20
  -6  -3   7    0.90    1.40
   6   3   7    0.40    2.10
  -6   3  -7   -0.90    2.10
  -6  -3   7   -0.40    1.70
  -6  -3   7    3.10    2.80
  -6   3  -7    0.10    1.70
   6  -3  -7   -0.80    2.40
   7   3  -7   13.40    3.10
  -7   3   7   13.10    3.00
   7  -3   7   12.30    3.10
   7  -3   7   10.10    2.50
  -7   3   7   13.30    3.30
  -7  -3  -7   13.90    3.10
  -7  -3  -7   10.60    3.70
  -7  -3   7   11.60    2.50
   7  -3  -7   14.20    2.60
  -7   3  -7   23.10    3.20
  -7  -3   7   15.70    2.90
  -7   3  -7   15.30    3.50
  -7  -3   7   17.70    2.40
   7   3   7   14.30    3.30
   7   3   7   14.60    2.70
  -7   3  -7   15.30    3.50
   8   3  -7    0.00    2.00
  -8  -3  -7    0.50    1.70
   8  -3   7   -0.80    1.70
  -8   3   7    4.00    2.40
  -8   3   7    1.50    1.70
   8   3   7    1.30    1.50
  -8   3  -7    2.60    1.20
  -8   3  -7    3.10    2.20
  -8  -3   7    0.40    1.90
  -8   3  -7    2.90    1.50
  -8  -3   7    1.60    1.40
  -8  -3   7    2.40    1.10
  -9   3   7    5.90    1.30
  -9  -3  -7    3.40    1.10
   9   3  -7    8.00    1.50
   9  -3   7    2.20    1.20
  -9  -3   7    8.20    1.50
  -9   3  -7    5.50    1.60
   0   4   7  520.95   33.00
   0   4  -7  516.65   26.30
   0  -4   7  521.05   26.40
  -1  -4  -7  364.66   26.60
   1  -4   7  380.16   19.80
   1   4  -7  386.76   20.40
  -1   4   7  465.65   30.20
   1   4   7  398.66   21.00
   1  -4  -7  379.76   28.60
   1   4   7  371.26   26.70
  -1  -4   7  381.36   20.20
   2  -4   7  266.47   15.00
  -2  -4  -7  220.68   16.10
  -2   4   7  218.08   14.50
  -2  -4  -7  266.27   23.90
  -2   4   7  312.27   23.80
   2   4  -7  264.57   14.60
  -2   4  -7  247.68   17.10
  -2  -4   7  269.17   14.10
   2  -4  -7  236.08   20.60
   2   4   7  243.68   14.70
  -2  -4   7  277.77   15.00
   2   4   7  315.97   23.80
  -3  -4  -7    5.30    2.20
   3  -4   7    3.70    1.80
  -3   4   7    2.90    1.60
   3  -4   7    7.80    2.00
   3  -4   7    6.40    2.00
   3   4  -7    6.70    2.20
  -3   4   7    5.00    1.40
  -3   4   7    4.10    1.80
  -3  -4   7   10.70    2.10
  -3  -4   7    6.80    2.10
   3  -4  -7    4.40    1.80
   3   4   7    3.80    1.90
  -3  -4   7    6.80    2.30
  -3  -4   7    7.40    2.10
  -4   4   7   12.40    2.90
   4  -4   7   16.90    2.90
   4  -4   7   13.60    2.50
   4  -4   7   15.50    2.80
   4  -4   7   16.00    2.40
   4   4  -7   11.70    2.80
  -4  -4  -7   14.90    3.00
  -4   4   7   11.70    2.70
  -4   4   7   15.70    2.20
   4   4   7   14.20    3.00
   4   4   7   10.20    2.90
  -4  -4   7   18.90    3.20
  -4  -4   7   10.20    1.70
  -4  -4   7    8.50    2.10
   4   4   7   15.00    2.50
   4  -4  -7   22.00    3.10
  -4   4  -7   16.40    3.10
  -4   4  -7    9.20    2.00
  -4  -4   7   15.70    3.00
   5  -4   7   37.10    4.00
   5   4  -7   28.30    6.00
  -5   4   7   24.70    3.80
   5  -4   7   36.70    4.40
   5  -4   7   35.50    4.50
  -5   4   7   37.50    5.00
  -5  -4   7   34.40    4.40
  -5  -4   7   27.20    3.90
   5   4   7   32.40    4.10
  -5   4  -7   38.20    4.10
  -5  -4   7   33.90    3.80
   5   4   7   32.20    4.50
  -5  -4   7   35.80    3.00
  -5   4  -7   39.00    4.90
   5  -4  -7   40.70    4.20
  -6   4   7   12.80    3.20
   6   4  -7   16.40    3.10
  -6  -4  -7    4.00    4.20
   6  -4   7   12.00    2.50
  -6   4   7   17.80    3.40
   6  -4   7   17.80    3.50
   6  -4   7   13.80    3.20
  -6   4  -7   14.60    2.60
  -6  -4   7   14.50    2.90
  -6  -4   7   10.00    2.50
   6  -4  -7   12.60    2.50
  -6   4  -7   12.80    3.00
   6   4   7   11.60    3.50
  -6  -4   7   13.80    2.00
   6   4   7   15.60    3.00
  -7  -4  -7    6.40    2.30
  -7   4   7   10.30    3.70
   7  -4   7    5.80    2.40
   7   4  -7    6.60    2.60
  -7   4   7   11.10    2.70
   7  -4   7    5.40    2.20
   7   4   7    4.90    2.30
   7   4   7    4.60    2.40
  -7  -4   7    6.70    1.40
  -7  -4   7    7.10    2.30
  -7   4  -7   11.40    3.20
  -7  -4   7   11.00    2.40
  -7  -4   7   10.00    2.30
  -7   4  -7   10.80    2.20
   8   4  -7    0.60    1.60
  -8  -4  -7    0.80    1.30
   8  -4   7   -0.40    1.40
  -8   4   7   -2.00    2.40
  -8   4   7    0.10    1.30
  -8  -4  -7    1.90    1.90
   8   4   7   -0.60    1.70
  -8   4  -7    0.30    2.10
  -8  -4   7   -0.50    1.80
  -8  -4   7   -1.80    1.30
  -8   4  -7   -0.40    1.00
  -8  -4   7    0.20    1.50
   0   5   7   25.60    3.30
   0  -5   7   22.60    2.60
   0  -5  -7   28.50    3.50
   0  -5  -7   26.20   13.10
   0  -5   7   24.50    4.30
   0  -5   7   33.90    4.10
   0   5  -7   23.10    2.80
   1  -5   7  159.38    9.40
   1  -5   7  159.98   10.50
  -1  -5  -7  165.18    9.90
   1   5  -7  174.48    9.80
   1  -5   7  158.88    9.80
  -1  -5  -7  157.38    9.90
   1  -5   7  165.78    8.90
   1   5   7  151.38   10.10
  -1  -5   7  165.38    9.80
   1  -5  -7  168.68   10.00
  -1  -5   7  164.78    9.90
  -1  -5   7  163.68    9.40
  -1  -5   7  161.38   10.00
  -2   5   7  576.34   29.40
   2  -5   7  554.54   29.40
  -2  -5  -7  554.74   29.10
   2   5  -7  549.65   29.40
   2  -5   7  539.85   28.50
   2  -5   7  584.54   29.20
   2  -5   7  548.85   28.70
  -2  -5   7  500.75   28.90
  -2  -5   7  507.75   28.50
   2   5   7  531.95   29.60
  -2  -5   7  545.75   28.70
  -2  -5   7  571.04   29.40
   2  -5  -7  599.94   29.50
   2  -5  -7  584.24   28.20
  -2  -5   7  571.04   29.20
  -3   5   7   63.09    4.40
   3  -5   7   66.89    7.80
   3   5  -7   60.09    5.90
  -3   5   7   66.29    7.10
  -3  -5  -7   61.09    5.30
   3  -5   7   65.39    5.40
   3  -5   7   61.29    5.20
   3  -5   7   64.49    4.70
   3  -5   7   65.79    5.40
  -3   5   7   61.19    5.20
   3  -5  -7   61.19    5.20
   3   5   7   60.09    5.40
  -3   5  -7   61.79    5.50
  -3  -5   7   56.79    6.00
  -3  -5   7   64.89    5.30
   3  -5  -7   64.39    4.40
  -3  -5   7   51.09    4.80
  -3  -5   7   63.19    5.40
   3   5   7   50.89    5.80
  -3  -5   7   59.19    5.00
   4  -5   7    4.70    2.40
   4   5  -7    5.60    3.20
  -4   5   7    3.90    2.20
  -4   5   7    3.10    1.50
   4  -5   7    2.10    1.80
  -4  -5  -7    7.00    2.60
   4  -5   7    1.10    2.30
  -4  -5   7    3.10    5.20
   4   5   7    4.80    2.30
  -4  -5   7    4.30    1.80
  -4   5  -7    4.60    2.10
   4  -5  -7    3.00    1.70
  -4  -5   7    3.90    1.80
   4   5   7    6.00    2.20
  -4  -5   7    6.30    2.40
  -4   5  -7    6.20    2.30
  -4  -5   7    2.60    1.90
   5   5  -7   27.40    3.90
   5  -5   7   36.40    4.00
   5  -5   7   35.80    4.50
   5  -5   7   29.20    4.30
  -5   5   7   38.80    5.40
   5  -5   7   36.30    4.10
  -5   5   7   28.40    4.20
  -5  -5   7   35.60    3.90
  -5  -5   7   22.10    3.90
  -5  -5   7   28.30    4.10
   5   5   7   18.30    3.60
   5   5   7   34.60    4.00
  -5   5  -7   36.00    4.10
  -5  -5   7   24.00    3.60
  -6   5   7    2.90    2.50
   6  -5   7    1.50    1.90
   6  -5   7    2.70    2.30
   6   5  -7    3.90    3.70
   6  -5   7    1.40    3.00
  -6   5   7    2.30    2.40
   6   5   7    7.00    2.50
  -6   5  -7    9.70    2.90
  -6  -5   7    2.40    2.30
  -6  -5   7    5.80    2.50
   6   5   7    5.20    2.80
  -6   5  -7    4.70    2.00
  -6  -5   7    5.40    1.90
  -7   5   7   10.50    2.90
  -7   5   7    5.70    2.10
   7   5  -7    8.10    2.40
   7  -5   7    6.70    2.30
  -7  -5  -7    5.80    2.00
   7  -5   7    3.00    2.00
  -7  -5   7   -1.30    1.90
  -7  -5   7    7.80    2.30
   7   5   7    9.00    3.30
  -7   5  -7    7.30    1.90
  -7  -5   7    5.50    2.00
  -7   5  -7    8.50    2.70
  -8  -5  -7    1.90    1.20
  -8   5   7    1.10    1.30
   8   5  -7   -1.20    1.40
  -8  -5  -7    0.10    1.10
  -8  -5   7   -1.10    1.00
  -8   5  -7    0.10    1.70
  -8  -5   7   -0.20    1.50
   0  -6   7    5.60    2.70
   0  -6   7    7.10    1.70
   0  -6  -7   12.70    3.00
   0  -6   7    6.60    1.80
   0  -6  -7    9.00    2.50
   0   6   7    6.90    1.90
   0  -6   7    8.60    2.50
   0  -6   7    8.00    2.40
   0  -6   7    6.80    2.20
   1  -6   7   89.49    6.20
  -1   6   7   70.39    6.30
   1   6  -7   70.39    5.70
   1  -6   7   75.39    5.40
  -1  -6  -7   82.59    6.10
  -1  -6  -7   80.49    6.00
   1  -6   7   76.89    6.20
   1  -6   7   81.09    6.10
  -1  -6   7   78.09    5.50
  -1  -6   7   72.69    6.00
   1  -6  -7   81.19    6.10
   1   6   7   76.89    6.50
  -1  -6   7   75.09    5.90
   1  -6  -7   73.09    5.90
  -1  -6   7   72.19    5.30
  -1  -6   7   68.49    5.90
  -1  -6   7   75.59    6.10
  -2  -6  -7   60.79    5.70
   2   6  -7   58.49    5.90
   2  -6   7   66.19    5.80
   2  -6   7   63.49    5.40
  -2   6   7   58.69    5.50
   2  -6   7   72.99    5.70
  -2  -6   7   57.09    4.80
  -2  -6   7   63.49    5.00
  -2  -6   7   50.59    5.30
  -2   6  -7   66.09    5.70
  -2  -6   7   63.69    5.40
  -2  -6   7   60.09    5.40
   2  -6  -7   65.09    5.50
  -2  -6   7   61.99    5.40
   2   6   7   62.99    6.20
   3   6  -7    5.80    2.80
  -3  -6  -7    1.50    2.30
   3  -6   7    2.00    1.50
   3  -6   7    1.10    2.80
   3  -6   7    2.80    2.40
  -3   6   7    0.80    1.40
   3  -6   7    5.10    2.60
  -3   6   7    2.10    2.00
  -3  -6   7    4.30    2.00
   3  -6  -7    0.30    2.50
  -3  -6   7    2.80    1.90
  -3   6  -7    5.70    2.30
  -3  -6   7    0.60    1.80
  -3  -6   7    4.00    4.40
  -3  -6   7    0.90    1.40
  -3   6  -7    3.70    1.90
   4  -6   7   52.39    5.50
   4  -6   7   49.20    5.80
   4  -6   7   49.70    5.40
  -4   6   7   47.00    5.00
   4  -6   7   44.10    4.50
  -4  -6  -7   49.30    5.10
  -4   6  -7   49.00    4.80
  -4  -6   7   43.20    4.40
   4   6   7   46.30    4.80
  -4  -6   7   54.69    4.80
  -4  -6   7   50.99    5.20
  -4  -6   7   53.89    7.90
  -4  -6   7   50.59    5.20
  -4   6  -7   46.30    6.50
   5  -6   7    4.00    2.20
   5  -6   7    5.60    2.30
  -5   6   7    2.00    2.40
  -5   6   7    5.80    2.50
   5  -6   7    5.60    3.90
   5  -6   7    6.80    2.90
  -5  -6   7   -2.40    2.70
  -5  -6   7   11.50    3.10
   5   6   7    5.50    2.30
  -5   6  -7    2.70    1.60
  -5  -6   7    5.90    2.50
  -5   6  -7    4.80    2.50
   6  -6   7   24.60    3.40
  -6   6   7   14.50    2.90
   6   6  -7   19.80    3.30
   6  -6   7   18.30    3.00
  -6   6  -7   23.10    3.10
  -6   6  -7   24.70    3.90
  -6  -6   7   16.40    2.90
   6   6   7   22.30    3.20
  -6  -6   7   17.90    3.10
  -7  -6  -7    0.20    1.50
  -7   6   7   -1.00    1.40
  -7  -6  -7   -0.70    1.20
   7  -6   7    1.50    1.70
   7   6  -7    0.20    1.80
   7   6   7    2.20    2.40
  -7  -6   7    0.20    1.80
  -7   6  -7   -0.60    2.20
  -7  -6   7   -1.20    1.40
  -7   6  -7    2.80    1.90
  -8   6   7   -0.60    0.80
  -8  -6  -7    1.00    0.80
   8   6  -7    0.60    1.20
  -8  -6  -7    1.40    1.50
  -8  -6   7   -1.00    1.10
  -8  -6   7    1.70    1.20
   0  -7   7    1.90    2.50
   0  -7   7    5.10    2.40
   0   7   7    1.40    2.70
   0  -7   7    8.60    3.20
   0  -7   7    4.00    1.80
   0  -7  -7    4.80    2.50
   0  -7  -7    1.10    2.20
   0  -7   7    4.80    2.70
   1  -7   7   11.00    3.10
  -1  -7  -7    6.10    2.60
  -1  -7  -7    5.70    2.70
   1  -7   7    7.40    2.60
   1  -7   7    6.70    2.30
   1  -7  -7    1.30    2.20
   1   7   7    4.20    2.60
  -1  -7   7    1.70    2.00
  -1  -7   7    2.50    2.80
  -1  -7   7    2.00    2.30
   1  -7  -7    7.60    2.70
  -1  -7   7    3.00    1.90
  -1  -7   7    8.20    4.20
  -2  -7  -7    6.60    3.00
   2   7  -7    1.50    3.80
   2  -7   7   10.40    3.40
  -2   7   7   10.60    2.70
   2  -7   7   15.00    3.50
   2  -7   7    5.80    3.00
   2  -7  -7    7.80    2.90
  -2  -7   7    6.50    2.40
  -2  -7   7    7.70    5.80
  -2  -7   7    7.80    4.00
  -2  -7   7   11.20    2.40
   3  -7   7    6.50    3.10
   3  -7   7    7.40    3.20
  -3   7   7    5.90    2.20
   3  -7   7    4.10    3.90
  -3  -7  -7    3.00    2.60
  -3  -7   7   -0.90    4.10
   3  -7  -7    9.30    2.80
  -3   7  -7    8.00    2.40
  -3  -7   7    8.50    2.60
  -3  -7   7    7.20    3.10
  -3  -7   7    3.90    6.40
   4  -7   7    2.70    2.70
   4  -7   7    0.90    3.40
  -4  -7  -7    1.40    2.40
  -4   7   7    1.90    2.10
   4  -7   7   -0.70    2.80
   4   7   7    5.10    2.20
  -4  -7   7    1.80    7.30
  -4   7  -7    7.70    2.70
  -4  -7   7    2.30    2.20
  -4   7  -7    1.60    1.30
  -4  -7   7    0.80    2.10
   5   7  -7    0.60    2.30
   5  -7   7    2.20    1.70
  -5   7   7   -1.30    2.00
   5  -7   7   -1.30    2.10
   5  -7   7    2.20    3.10
  -5   7  -7    1.80    1.40
  -5  -7   7   -3.20    2.40
  -5  -7   7    1.40    1.90
  -5  -7   7    0.80    1.90
   5   7   7    1.20    2.00
  -5   7  -7    2.00    2.80
  -6  -7  -7    6.80    1.90
  -6   7   7    3.30    2.00
   6   7  -7    3.90    2.00
   6  -7   7   -0.30    2.00
  -6   7  -7    4.70    1.90
   6   7   7    4.70    2.10
  -6  -7   7    7.00    2.30
  -6  -7   7    4.60    2.20
  -7  -7  -7    1.40    1.30
  -7   7   7    3.20    1.20
   7   7  -7    2.50    1.60
  -7  -7  -7    2.70    1.10
  -7   7  -7    4.60    1.50
  -7  -7   7    2.40    1.60
  -7  -7   7    1.60    1.40
   0  -8  -7   39.50    5.10
   0  -8   7   52.69    6.60
   0  -8  -7   46.40    5.20
   0  -8   7   52.99    5.60
   0  -8   7   39.40    4.80
  -1  -8  -7   18.10    3.40
  -1  -8  -7   18.00    3.70
   1  -8   7   11.50    3.70
   1  -8   7   22.80    4.50
   1  -8   7   20.50    4.00
  -1  -8   7   21.90    3.50
  -1  -8   7   18.20    5.10
   1  -8  -7   15.20    3.50
  -1  -8   7   25.10    4.60
   1  -8  -7   14.90    3.30
   2  -8   7    5.50    4.40
   2  -8   7    3.60    3.60
  -2  -8  -7    1.40    2.60
   2  -8   7    2.50    2.70
  -2  -8   7    9.40    2.40
  -2  -8   7    5.60    7.60
   2  -8  -7    1.50    2.70
   2  -8  -7   -3.00    2.30
  -2  -8   7    5.60    2.50
  -2  -8   7    3.00    4.80
   3  -8   7    4.90    4.60
  -3   8   7    3.50    3.50
  -3  -8   7    6.80    2.30
  -3   8  -7    4.40    1.60
   3  -8  -7    6.50    3.10
  -3  -8   7    1.20    8.50
  -3  -8   7    8.20    3.40
  -3  -8   7    0.30    2.60
   4  -8   7   10.50    2.90
  -4   8   7   12.50    2.90
  -4  -8  -7   13.80    3.30
   4  -8   7   12.60    4.60
   4  -8   7   19.00    3.10
  -4  -8   7   11.50    2.90
  -4   8  -7    9.00    2.00
  -4  -8   7   13.40    2.70
   4   8   7   17.80    2.90
  -4  -8   7   10.80    7.00
   5  -8   7   -2.50    4.30
   5   8  -7    1.00    2.10
   5  -8   7    2.10    1.90
  -5   8   7    2.70    2.00
   5   8   7    1.80    1.80
  -5  -8   7   -2.40    2.10
  -5  -8   7    0.60    1.70
  -5   8  -7    0.20    1.60
  -5  -8   7   -0.80    1.70
  -6   8   7    2.00    1.50
   6  -8   7    1.10    1.40
  -6  -8  -7    1.00    1.30
   6   8  -7    3.90    1.70
  -6  -8  -7    0.80    1.10
  -6  -8   7   -0.30    1.30
  -6   8  -7    1.70    1.50
   6   8   7    1.60    1.60
  -6  -8   7    0.80    1.40
  -7  -8  -7    0.20    0.90
   7   8   7    0.30    1.20
  -7  -8   7    0.90    1.00
   0  -9   7    0.90    6.10
   0  -9   7    2.70    3.40
   0  -9  -7    0.30    2.40
   0  -9  -7    1.50    2.50
   1  -9   7   -0.30    1.80
   1  -9   7    1.60    5.00
  -1  -9  -7    3.00    2.70
   1  -9   7    4.30    3.30
  -1  -9   7    3.10    2.30
   1  -9  -7    5.10    2.80
  -1  -9   7    6.10    7.90
   1  -9  -7    5.30    3.50
  -1  -9   7    0.90    4.10
   2  -9   7   19.70    3.50
   2  -9   7   14.00    4.70
   2  -9   7    6.60    8.30
  -2  -9  -7    9.40    3.00
   2  -9  -7    9.20    3.40
  -2  -9   7   11.60    2.60
  -2   9  -7    7.00    2.20
  -2  -9   7    4.80   10.00
  -2  -9   7   15.30    7.60
  -3  -9  -7    9.90    2.70
   3  -9   7   17.80    3.60
   3  -9   7   17.00    2.60
   3  -9   7    7.30    5.40
  -3   9  -7   15.70    2.60
  -3  -9   7   13.70    2.80
  -3  -9   7   10.70    8.10
   4  -9   7   -2.50    5.70
   4  -9   7    1.20    1.90
   4   9   7    4.20    1.90
  -4  -9   7    2.50    5.20
  -4  -9   7   -0.10    1.50
  -4  -9   7    2.00    2.00
  -4   9  -7    2.50    2.00
   5   9  -7    4.20    3.20
   5  -9   7    1.30    4.00
   5  -9   7    1.20    1.60
  -5  -9  -7    0.70    1.30
  -5  -9  -7    2.10    0.90
  -5   9  -7    2.30    1.60
   5   9   7    4.40    1.80
  -5  -9   7    1.70    1.30
  -5  -9   7    5.70    3.30
  -6  -9  -7    0.00    1.10
  -6  -9   7   -0.30    1.10
   6   9   7    2.70    1.30
   0 -10  -7    5.40    2.20
   0 -10   7   12.80   10.00
   0 -10   7    9.70    4.30
   1 -10   7    3.50    8.80
   1 -10   7    8.90    3.40
  -1 -10  -7    9.50    2.40
  -1 -10   7   11.10    6.70
   1 -10  -7    4.30    2.50
  -1 -10   7   -0.60    9.90
  -2 -10  -7    1.60    1.80
  -2 -10  -7    1.50    1.60
   2 -10   7   -2.50    7.00
   2 -10   7    4.30    3.00
  -2 -10   7   10.90    9.80
  -2 -10   7    2.20    1.70
  -2 -10   7    3.10   11.60
   3 -10   7   -0.80    6.50
  -3 -10  -7    1.50    1.40
  -3 -10  -7    2.10    1.80
   3 -10   7    1.90    2.60
   3  10   7   -0.30    1.60
  -3 -10   7    1.20    1.40
  -3 -10   7    0.50    6.60
  -4 -10  -7    1.10    1.30
   4 -10   7    0.60    1.90
   4 -10   7    0.20    5.40
  -4 -10   7    2.50    1.90
   4  10   7    1.30    1.40
  -4 -10   7    2.80    1.30
  -5 -10  -7   -0.40    0.90
  -5 -10   7    0.20    0.90
   5  10   7    1.60    1.30
   0 -11  -7   -0.80    1.00
   0 -11   7   -3.70    5.40
   0 -11   7    2.80    9.30
   1 -11   7   -0.30    4.30
   1 -11   7    3.30    8.00
  -1 -11  -7    0.10    1.20
  -1 -11   7    4.00    7.20
  -1 -11   7    6.20    5.70
   2 -11   7    1.40    3.00
   2 -11   7    2.50    6.50
  -2 -11   7    4.90    6.10
   2  11   7   -2.10    1.20
  -2 -11   7    0.10    2.70
   3 -11   7   -2.90    2.70
   3 -11   7    2.10    5.10
   3  11   7    2.20    1.20
  -3 -11   7    2.30    1.90
   0 -12   7    2.10    2.00
   0 -12   7    3.10    3.80
   1 -12   7    0.40    2.90
   1 -12   7    0.10    3.50
  -1 -12   7    4.00    3.50
   1  12   7    1.40    0.90
   0   0  -8    7.10    2.60
   0   0   8   10.50    3.30
   0   0  -8    7.40    1.60
   0   0   8    4.50    1.20
  -1   0   8   24.80    2.60
   1   0  -8   26.40    4.20
  -1   0   8   25.00    4.70
  -1   0  -8   23.20    2.40
   1   0   8   24.20    5.10
  -1   0  -8   28.40    4.90
  -2   0   8  282.47   19.30
  -2   0   8  284.27   15.50
  -2   0  -8  315.87   20.60
   2   0   8  289.87   20.40
   2   0  -8  322.37   21.40
  -2   0  -8  277.17   16.00
   2   0   8  304.57   15.60
  -3   0   8    6.80    1.70
  -3   0   8    6.30    2.40
  -3   0  -8    5.00    3.70
   3   0   8   11.70    4.90
   3   0   8    6.60    1.50
  -4   0  -8  111.59    7.40
   4   0   8  124.89    7.90
   4   0   8  129.69    7.70
   4   0  -8  113.09    7.80
   4   0   8  131.79    8.00
   4   0   8  121.99    7.50
  -4   0   8  126.19    7.50
  -4   0   8  122.79    8.50
  -4   0   8  124.79    7.70
  -5   0   8   44.30    4.70
   5   0   8   59.29    5.20
  -5   0  -8   57.09    5.70
  -5   0   8   59.49    4.60
   5   0  -8   51.79    5.20
  -5   0  -8   60.79    4.50
   5   0   8   59.69    4.20
   5   0   8   54.39    4.60
  -5   0   8   51.19    4.60
  -5   0   8   55.89    5.80
  -6   0   8   56.39    6.40
  -6   0  -8   56.19    6.00
  -6   0  -8   69.39    6.50
  -6   0   8   57.89    5.40
  -6   0   8   60.09    4.80
  -6   0   8   62.09    5.40
   6   0   8   64.39    5.90
  -6   0  -8   54.79    5.50
  -6   0   8   50.49    6.00
   6   0  -8   70.79    6.10
  -7   0  -8   32.50    5.60
   7   0  -8   40.80    5.20
  -7   0  -8   37.70    5.30
  -7   0   8   32.80    4.20
  -7   0   8   43.00    5.40
  -7   0   8   41.80    5.80
  -8   0   8    1.90    1.60
  -8   0  -8    0.90    2.00
  -8   0   8    5.90    2.60
   8   0   8    2.50    1.90
   8   0  -8    4.40    2.20
  -8   0  -8    2.70    2.40
  -8   0   8    0.70    1.80
  -9   0  -8    0.70    0.90
  -9   0   8    1.70    1.20
   9   0   8    0.70    1.10
   9   0  -8    1.30    1.30
  -9   0  -8    1.30    1.50
   0   1   8   60.89    6.90
   0   1  -8   67.29    5.80
   0  -1  -8   50.99    6.40
   0  -1   8   64.59    4.00
   0  -1   8   58.29    5.60
   0  -1  -8   58.19    4.70
   0   1  -8   58.29    4.10
  -1  -1  -8 1419.86   69.29
  -1   1   8 1311.47   72.79
   1  -1   8 1451.75   72.39
   1  -1   8 1350.06   68.49
   1   1  -8 1293.27   70.69
  -1  -1  -8 1399.96   73.59
   1   1   8 1448.66   73.59
  -1  -1   8 1437.96   73.59
  -1  -1   8 1359.56   68.89
   1  -1  -8 1333.97   72.79
  -1   1  -8 1403.56   68.69
   1   1   8 1392.46   68.99
  -1   1  -8 1417.16   72.29
  -2   1   8   35.20    6.50
   2  -1   8   40.20    2.70
  -2   1   8   38.90    3.20
  -2  -1  -8   44.20    7.20
   2   1  -8   36.90    5.00
   2   1   8   44.10    3.60
  -2   1  -8   37.80    2.80
   2  -1  -8   35.50    6.10
   2   1   8   33.50    6.40
  -2  -1   8   40.10    3.30
  -2   1  -8   51.79    9.00
   3  -1   8  477.75   24.30
  -3   1   8  484.75   25.80
  -3   1   8  518.15   25.00
  -3  -1  -8  490.75   35.40
  -3  -1   8  467.85   30.00
  -3  -1   8  506.85   25.10
   3   1   8  508.45   25.50
  -3  -1   8  463.15   25.70
   3   1   8  454.35   33.20
   4  -1   8  151.88    8.90
  -4   1   8  143.09    8.90
  -4  -1  -8  138.29    8.40
  -4   1   8  175.58   10.60
   4  -1   8  138.89    8.90
  -4   1   8  144.39    8.40
  -4  -1   8  139.19    8.90
   4   1   8  146.39    9.80
   4   1   8  141.29    9.00
   4  -1  -8  143.49    9.10
  -4  -1   8  141.89    8.70
  -4  -1   8  147.19    9.60
  -4   1  -8  142.09    8.60
  -4  -1   8  137.99    8.50
   4   1   8  141.89    9.80
  -5   1   8  108.49    7.20
  -5  -1  -8   97.09    7.50
   5   1  -8   90.39    7.10
   5  -1   8   99.49    7.30
  -5   1   8  110.59    7.10
  -5   1   8  100.19    7.10
   5  -1   8  100.89    6.70
  -5   1   8  103.09    7.90
  -5  -1  -8   97.39    7.80
  -5  -1   8  100.49    8.00
   5   1   8   99.99    7.60
   5   1   8  102.69    6.60
  -5  -1   8  103.49    7.00
  -5  -1   8  103.69    6.80
  -5   1  -8  101.29    6.70
  -5   1  -8  103.89    7.80
  -5  -1   8  102.19    6.90
  -5   1  -8   97.99    7.60
   5  -1  -8  111.59    7.50
   5   1   8  101.19    7.30
  -6   1   8   35.30    4.30
  -6  -1  -8   34.20    4.90
  -6   1   8   43.10    5.70
   6   1  -8   28.20    4.10
  -6   1   8   37.30    4.30
  -6  -1  -8   34.20    4.40
   6  -1   8   42.20    4.90
  -6  -1  -8   35.80    3.40
   6   1   8   43.10    4.80
  -6  -1   8   35.20    5.50
  -6  -1   8   21.40    4.40
   6   1   8   28.80    3.80
  -6  -1   8   36.40    4.00
  -6   1  -8   43.40    5.40
  -6   1  -8   43.70    4.80
   6  -1  -8   40.50    5.00
  -6  -1   8   35.30    4.00
  -6   1  -8   40.80    4.00
  -6  -1   8   34.20    4.30
  -7   1   8   15.60    3.70
  -7   1   8   15.20    3.00
   7  -1   8   15.00    3.40
   7   1  -8   13.40    3.30
  -7   1   8   20.00    3.00
  -7  -1  -8   15.80    5.10
  -7  -1  -8   18.00    3.40
  -7  -1   8   18.40    2.90
  -7   1  -8   19.50    3.80
  -7  -1   8   15.70    3.50
   7   1   8   12.80    4.50
  -7   1  -8   16.00    3.60
   7  -1  -8   16.50    3.30
  -7  -1   8   15.30    3.70
   8   1  -8    1.40    2.00
  -8  -1  -8    3.30    2.10
  -8   1   8    2.00    1.50
  -8   1   8    2.60    2.70
  -8   1   8   -1.30    1.30
  -8  -1  -8    0.40    1.60
   8  -1   8    3.10    2.00
  -8  -1   8    1.90    1.40
   8   1   8    2.20    2.20
  -8   1  -8    1.60    2.00
  -8  -1   8    3.30    2.10
  -8   1  -8    0.80    2.20
   9  -1   8    1.50    1.20
   9   1  -8    2.70    1.30
  -9   1   8    0.90    0.90
  -9  -1  -8    0.80    1.10
  -9  -1   8    2.00    0.80
  -9  -1   8    0.80    1.00
   9   1   8    1.00    0.80
  -9   1  -8    1.30    1.20
  -9   1  -8    3.70    3.60
  -9  -1   8    3.50    1.60
   0   2   8  135.39   12.10
   0  -2   8  108.19    7.20
   0  -2  -8  119.69   10.50
   0   2  -8   90.09    6.10
   0   2  -8  104.79    7.00
   1  -2   8   19.90    1.90
  -1  -2  -8   17.20    4.60
  -1   2   8   17.90    5.00
  -1  -2   8   17.60    2.20
   1  -2  -8   21.10    4.90
   1   2   8   13.60    4.10
  -1   2  -8   21.10    4.10
  -1   2  -8   19.00    1.70
   1   2   8   17.10    2.70
  -1  -2   8   16.90    2.40
  -2   2   8   62.89    8.90
  -2  -2  -8   67.89    9.40
  -2   2   8   67.29    5.20
   2  -2   8   67.99    3.90
  -2   2   8   66.89    4.50
  -2  -2   8   71.69    4.80
   2   2   8   71.19    9.60
  -2  -2   8   69.99    6.10
   2  -2  -8   79.69    9.00
  -2   2  -8   68.79    8.00
   2   2   8   66.69    5.10
  -3   2   8   68.69    6.50
  -3   2   8   65.29    4.40
  -3   2   8   65.39    5.40
  -3  -2  -8   67.19   11.40
  -3  -2  -8   68.99    5.30
  -3   2  -8   49.70    8.60
  -3  -2   8   65.09    4.70
  -3  -2   8   63.49    5.90
  -3  -2   8   64.79    5.50
   3   2   8   58.69    5.10
   3   2   8   50.59    9.80
  -3  -2   8   47.80    7.70
   4  -2   8   16.70    2.60
  -4  -2  -8   13.90    2.20
   4  -2   8   13.50    2.60
   4  -2   8   15.40    2.60
  -4   2   8   10.40    1.80
   4  -2   8    9.30    2.50
  -4   2   8   11.20    2.50
   4   2   8   12.70    2.70
  -4  -2   8    9.60    2.10
  -4  -2   8   14.60    3.10
   4  -2  -8   12.20    2.60
  -4   2  -8   15.70    2.50
  -4  -2   8   10.50    1.80
  -4  -2   8   10.00    2.10
   4   2   8   13.10    2.60
  -5   2   8    1.80    1.50
   5  -2   8    0.50    2.10
  -5   2   8    1.30    1.80
   5  -2   8   -0.80    1.50
  -5   2   8    1.10    2.10
  -5  -2  -8    0.70    1.10
  -5  -2  -8    3.10    2.00
   5  -2   8    1.00    2.10
  -5   2   8    7.70    2.00
   5   2  -8    2.50    2.30
   5   2  -8    1.40    2.10
  -5  -2   8    2.00    1.80
  -5  -2   8    1.30    2.10
   5   2   8   -1.30    2.00
  -5  -2   8   -1.10    1.50
  -5  -2   8   -0.60    1.70
  -5   2  -8    1.10    1.50
  -5   2  -8    4.50    2.50
   5   2   8    4.00    2.00
   5  -2  -8   -0.10    1.90
  -5   2  -8   -2.40    2.30
  -6   2   8   34.50    4.30
  -6   2   8   44.20    5.90
   6  -2   8   33.60    3.80
   6  -2   8   34.10    4.60
   6   2  -8   38.00    4.80
  -6   2   8   32.10    3.40
  -6   2  -8   39.20    4.80
  -6   2  -8   30.10    4.80
  -6  -2   8   31.90    4.10
  -6  -2   8   21.40    3.30
  -6  -2   8   28.40    3.70
   6  -2  -8   38.10    4.90
  -6   2  -8   34.50    3.80
   6   2   8   30.80    3.90
   6   2   8   26.20    4.30
  -6  -2   8   30.80    5.40
  -6  -2   8   31.10    3.60
  -7   2   8   32.40    5.30
   7   2  -8   23.60    4.00
  -7  -2  -8   32.50    4.60
   7  -2   8   26.10    4.50
  -7  -2  -8   23.90    3.80
  -7   2   8   36.30    5.50
  -7  -2   8   26.70    3.40
  -7  -2   8   24.30    3.60
   7  -2  -8   28.00    4.20
   7   2   8   22.40    3.80
   7   2   8   25.10    3.30
  -7  -2   8   31.00    4.80
  -7   2  -8   36.70    4.60
  -7  -2   8   33.90    3.50
  -7   2  -8   31.80    4.90
  -8   2   8    3.00    2.40
  -8   2   8   -0.40    1.50
   8  -2   8    0.50    1.60
   8   2  -8    0.10    2.00
  -8  -2  -8    1.20    1.90
   8  -2   8   -0.50    1.40
  -8  -2  -8    0.70    1.60
  -8  -2   8   -0.30    1.20
  -8   2  -8    1.10    1.90
  -8   2  -8    1.70    2.20
   8   2   8    1.00    1.70
  -8  -2   8   -1.60    1.60
   8  -2  -8    0.00    1.50
  -9  -2  -8    0.80    0.90
   9   2  -8    3.20    1.30
  -9   2   8    1.80    1.10
   9  -2   8    1.00    1.00
   9   2   8   -1.10    1.00
  -9  -2   8    1.50    1.10
  -9  -2   8    3.90    1.20
  -9   2  -8    1.30    2.00
   0   3   8   17.10    5.00
   0  -3   8   19.30    2.20
   0   3   8   18.90    2.70
   0  -3  -8   29.40    6.80
  -1   3   8    1.10    2.80
   1  -3   8    1.50    0.90
  -1  -3  -8    6.30    3.40
   1  -3  -8    5.30    3.30
   1   3   8    3.00    3.40
  -1   3  -8    1.90    1.40
   1   3   8    5.00    1.80
  -1  -3   8    4.00    1.50
  -1   3  -8    4.20    1.90
  -2   3   8  577.64   35.40
  -2  -3  -8  529.15   34.80
  -2   3   8  456.55   25.90
   2  -3   8  466.55   24.80
   2   3   8  490.85   32.80
  -2  -3   8  497.05   25.70
   2  -3  -8  511.55   32.60
  -2   3  -8  495.85   29.30
   2   3   8  488.65   26.20
  -3   3   8  216.28   11.20
   3  -3   8  213.88   11.40
  -3   3   8  204.28   11.80
   3  -3   8  203.58   11.60
  -3  -3  -8  181.58   10.80
  -3  -3  -8  154.68   20.00
   3  -3   8  193.28   11.60
  -3   3   8  196.58   11.90
   3   3   8  191.88   21.70
  -3  -3   8  213.98   11.50
  -3  -3   8  220.48   15.10
  -4  -3  -8    7.90    2.40
   4   3  -8    8.20    2.50
  -4  -3  -8    8.10    1.60
  -4   3   8   12.50    2.70
  -4   3   8   12.10    2.10
   4  -3   8    6.30    2.00
  -4   3   8    7.90    2.30
   4  -3   8    5.00    2.10
   4  -3   8    8.40    2.00
   4  -3   8    8.60    2.30
   4   3   8   10.80    2.40
  -4  -3   8    8.40    2.00
   4   3   8   11.10    2.20
  -4  -3   8   12.40    2.60
  -4  -3   8   16.80    3.00
  -4   3  -8    7.50    1.90
   4   3   8    7.60    2.50
  -4  -3   8    8.50    1.70
   4  -3  -8   10.60    2.40
   5  -3   8    9.90    2.30
   5   3  -8   13.80    2.70
  -5  -3  -8    8.90    2.50
  -5   3   8   12.00    3.00
  -5  -3  -8    8.10    1.70
  -5   3   8   12.10    2.80
  -5   3   8    8.70    3.70
   5  -3   8   13.30    3.10
  -5   3  -8   15.00    2.90
  -5  -3   8   12.00    2.00
  -5  -3   8    9.50    2.30
   5   3   8   15.60    4.20
  -5   3  -8   11.80    3.00
   5   3   8   12.10    3.10
  -5  -3   8    9.30    3.10
   5  -3  -8   14.80    4.50
   5   3   8    7.80    3.30
  -5  -3   8   13.10    2.60
   6  -3   8   38.80    4.60
  -6  -3  -8   40.50    4.70
   6  -3   8   42.50    4.40
  -6   3   8   40.70    5.80
   6   3  -8   45.80    5.30
  -6   3   8   47.10    5.10
  -6  -3   8   48.80    5.10
   6   3   8   43.00    4.80
  -6  -3   8   41.00    4.50
   6   3   8   43.80    4.70
  -6   3  -8   43.70    5.30
  -6  -3   8   38.50    3.80
  -6   3  -8   48.80    4.50
  -6  -3   8   45.00    4.30
  -7  -3  -8   12.30    2.70
  -7   3   8   12.60    3.20
   7   3  -8   14.50    3.20
  -7   3   8   13.30    3.10
   7  -3   8   12.60    3.00
   7  -3   8   15.70    2.70
  -7  -3  -8   14.10    3.00
  -7  -3   8    8.80    1.90
  -7  -3   8   10.10    2.60
  -7  -3   8   15.30    2.70
  -7   3  -8   16.10    2.50
   7  -3  -8   16.00    2.60
  -7   3  -8   12.20    3.30
   7   3   8   12.40    2.40
   7   3   8   18.50    3.50
  -7   3  -8   11.50    3.00
  -8   3   8    1.00    1.60
  -8   3   8    2.60    2.50
   8   3  -8    0.70    2.10
  -8  -3  -8    1.80    1.90
   8  -3   8    2.70    2.50
   8  -3   8   -0.10    1.70
  -8   3  -8   -0.80    1.60
  -8  -3   8    2.50    1.40
  -8   3  -8    1.10    1.90
  -8   3  -8   -0.20    1.00
   8   3   8    2.20    1.60
  -9  -3  -8    1.60    0.90
   9   3  -8    4.20    1.10
  -9   3   8    4.20    1.10
  -9  -3   8    4.60    1.20
   0   4   8    9.90    2.50
   0  -4   8   13.50    2.10
   0  -4  -8   17.00    6.10
   0   4  -8   14.40    2.80
   0   4   8   10.80    5.10
  -1   4   8    1.80    3.40
   1   4  -8    8.50    1.80
   1  -4   8   10.30    1.80
  -1  -4  -8    9.20    5.40
   1   4   8    9.10    2.40
  -1  -4   8    8.40    1.90
   1  -4  -8   13.40    5.10
   1   4   8   12.80    4.00
   2  -4   8  135.79    8.30
   2  -4   8  121.19    7.70
  -2  -4  -8   95.39   17.10
   2   4  -8  108.79    9.80
  -2  -4  -8  130.89    8.20
  -2   4   8  110.59   15.00
  -2  -4   8  129.59    8.30
   2   4   8  128.39   20.40
  -2  -4   8  122.19    7.70
  -2  -4   8  133.39    8.90
   2  -4  -8  133.79   15.80
  -2  -4   8  136.39    7.90
  -2   4  -8  117.49   10.80
   2   4   8  141.09    8.90
  -3   4   8  172.78    9.60
   3  -4   8  170.58   10.00
  -3  -4  -8  150.98    9.10
   3   4  -8  171.38   10.90
  -3   4   8  170.68   11.20
  -3  -4  -8  166.88   10.30
  -3   4   8  163.08   10.30
   3  -4   8  180.68   10.50
   3  -4   8  173.28    9.80
  -3  -4   8  171.78   10.20
   3   4   8  167.08   10.90
  -3  -4   8  176.38   10.40
  -3  -4   8  161.08    9.80
  -3  -4   8  165.58   10.40
   3   4   8  158.38   10.20
   4   4  -8   12.90    3.80
  -4   4   8   12.10    2.70
   4  -4   8   15.40    3.00
   4  -4   8   11.20    2.60
   4  -4   8    7.40    1.90
  -4   4   8   11.60    2.00
  -4   4   8   15.80    3.30
   4  -4   8   10.80    2.50
  -4  -4   8    8.70    2.40
   4   4   8   11.10    2.60
   4   4   8   10.90    4.00
  -4  -4   8    8.30    1.60
  -4  -4   8   19.20    2.70
   4   4   8   12.20    2.40
  -4   4  -8   16.20    3.30
   4  -4  -8   12.30    2.50
  -4  -4   8    9.80    2.30
  -4  -4   8   13.70    2.80
  -4   4  -8   12.20    2.30
  -5   4   8   11.90    3.00
   5   4  -8   14.90    3.10
  -5   4   8    9.10    2.80
   5  -4   8   12.30    2.30
   5  -4   8   13.00    2.90
  -5   4  -8   14.30    3.30
  -5  -4   8   12.10    3.20
  -5  -4   8   10.20    2.80
   5  -4  -8   15.30    2.70
  -5   4  -8   13.90    2.60
   5   4   8   10.90    3.10
   5   4   8   17.20    3.00
  -5  -4   8   10.90    1.90
  -5  -4   8   14.60    2.80
  -5  -4   8    5.30    2.30
   6  -4   8   12.50    4.30
   6  -4   8   13.20    3.00
   6   4  -8    8.50    3.60
  -6   4   8   14.30    3.10
  -6   4   8   17.10    4.50
   6  -4  -8   15.10    4.10
  -6   4  -8   17.80    3.90
  -6  -4   8   19.00    3.90
  -6  -4   8   13.30    3.50
  -6  -4   8   19.80    3.70
   6   4   8   10.40    3.00
  -6  -4   8   11.70    2.50
  -6   4  -8   16.00    3.40
  -6  -4   8   10.90    1.80
   7   4  -8   15.60    3.10
   7  -4   8   11.70    2.50
  -7  -4  -8   12.80    2.70
   7  -4   8   12.10    2.90
  -7   4   8   15.70    3.40
  -7   4   8   11.50    2.70
  -7  -4   8   17.30    2.60
  -7  -4   8   13.80    2.50
  -7  -4   8   16.30    3.00
  -7   4  -8   15.10    2.40
   7   4   8   12.40    3.30
   7   4   8   15.20    2.60
  -7   4  -8   17.30    3.50
   8  -4   8    0.10    1.30
  -8   4   8    1.20    1.40
   8   4  -8    0.70    1.70
  -8  -4  -8   -1.00    1.30
  -8  -4   8   -1.90    1.40
  -8  -4   8    0.60    1.20
  -8   4  -8    0.10    2.30
  -8  -4   8   -0.60    1.50
   8   4   8    2.10    1.70
  -8   4  -8   -0.10    0.90
   0  -5   8   19.00    2.50
   0  -5   8   27.50    3.40
   0  -5   8   15.70    2.30
   0  -5   8   20.60    4.20
   0   5   8   19.10    3.00
   0  -5  -8   27.30    3.60
   1  -5   8   15.90    2.90
   1  -5   8   17.10    2.60
   1  -5   8   18.50    3.00
  -1  -5  -8   21.60    3.20
  -1  -5  -8   22.00    3.50
   1  -5   8   11.40    3.60
  -1   5   8   23.30    4.50
   1  -5   8   16.40    2.10
   1   5  -8   22.40    2.80
   1  -5  -8   18.30    3.00
  -1  -5   8   20.90    2.90
   1   5   8   13.40    2.60
  -1  -5   8   19.40    2.70
  -1  -5   8   19.70    2.90
  -1  -5   8   18.30    2.50
  -1  -5   8   25.10    3.50
  -1  -5   8   18.30    3.10
   1  -5  -8   24.70    2.70
   2   5  -8   12.50    2.60
   2  -5   8   16.20    3.10
   2  -5   8   15.60    2.10
   2  -5   8   18.50    3.10
   2  -5   8   12.70    2.30
   2  -5   8   20.40    3.20
  -2  -5  -8   19.30    3.30
  -2   5   8   10.70    2.40
  -2  -5   8   13.90    2.30
   2  -5  -8   16.50    2.10
   2  -5  -8   11.80    2.60
  -2  -5   8   13.20    2.40
   2   5   8    8.10    2.70
  -2  -5   8   12.50    2.90
  -2  -5   8   23.10    4.00
  -2  -5   8   15.10    2.70
   2   5   8    7.40    2.30
  -2  -5   8   10.50    2.90
   3   5  -8   31.40    4.70
  -3  -5  -8   36.80    4.30
  -3   5   8   46.10    3.60
   3  -5   8   39.60    4.50
   3  -5   8   37.00    4.50
   3  -5   8   37.80    3.50
  -3   5   8   37.60    4.10
   3  -5   8   44.30    4.30
   3  -5   8   43.60    4.40
  -3  -5   8   30.20    3.50
   3   5   8   31.00    3.90
   3   5   8   43.60    5.10
  -3   5  -8   35.20    5.10
   3  -5  -8   41.70    3.40
  -3  -5   8   30.80    4.70
  -3  -5   8   36.90    3.90
  -3  -5   8   33.90    4.10
  -3  -5   8   35.40    4.30
   3  -5  -8   30.40    3.80
   4  -5   8    1.10    2.40
   4  -5   8    3.70    4.30
  -4   5   8    1.00    1.80
  -4   5   8    4.30    1.50
  -4   5   8    0.30    1.80
   4  -5   8    2.10    2.50
   4  -5   8   -0.80    1.70
   4  -5   8   -0.20    2.30
   4   5   8    1.90    2.30
  -4   5  -8    1.40    1.80
  -4   5  -8    3.40    2.20
   4  -5  -8    1.20    1.50
  -4  -5   8   -0.10    1.80
  -4  -5   8    1.10    2.10
  -4  -5   8    1.10    1.60
   4   5   8    1.10    1.70
  -4  -5   8    2.50    2.00
  -5   5   8   26.10    4.10
   5  -5   8   13.50    3.60
   5   5  -8   26.30    3.80
   5  -5   8   30.00    3.60
   5  -5   8   26.40    4.00
   5  -5   8   31.70    4.60
  -5   5   8   23.50    3.90
  -5   5  -8   27.00    4.10
   5   5   8   29.80    4.00
  -5  -5   8   19.70    3.40
   5   5   8   28.30    3.90
  -5  -5   8   28.90    4.00
  -5  -5   8   28.50    3.30
  -5  -5   8   25.50    3.50
   5  -5  -8   27.60    3.00
  -5   5  -8   21.00    3.10
   6  -5   8    0.00    2.00
   6  -5   8    3.80    3.00
   6  -5   8   -0.20    2.00
   6   5  -8    0.70    2.20
  -6   5   8   -0.90    2.20
  -6   5   8    0.70    2.20
  -6  -5   8    1.20    1.90
  -6   5  -8   -1.20    2.10
  -6  -5   8    1.20    2.40
  -6  -5   8    3.40    2.50
   6   5   8    0.10    2.60
  -6   5  -8    1.90    2.10
   6   5   8   -1.70    2.30
   7  -5   8    1.20    1.70
  -7   5   8    1.10    1.70
   7  -5   8    1.20    1.60
   7   5  -8   -1.80    2.10
  -7  -5  -8   -0.50    1.50
  -7  -5   8    0.20    1.70
   7   5   8    4.80    2.30
   7   5   8    2.50    1.80
  -7  -5   8    2.40    1.60
  -7   5  -8    0.30    1.40
  -7   5  -8    1.70    2.20
  -7  -5   8    2.80    1.80
  -8  -5  -8    3.30    1.10
  -8   5   8    0.80    1.20
   8   5  -8    3.80    1.70
  -8  -5   8    2.70    1.20
  -8  -5   8    4.20    1.60
  -8   5  -8    3.60    2.00
   0  -6   8    2.80    1.50
   0  -6  -8    0.90    2.30
   0  -6   8    3.60    1.70
   0  -6  -8    2.90    2.00
   0   6   8    4.50    2.40
   0  -6   8    5.70    1.50
   0   6   8    4.40    2.10
   0  -6   8    3.50    2.30
   0  -6   8    7.30    2.60
   0  -6   8    5.70    2.40
  -1  -6  -8    6.40    2.60
   1  -6   8    6.80    1.80
   1  -6   8    2.90    2.40
   1  -6   8    3.70    1.80
   1  -6   8    5.30    2.30
   1   6  -8    7.20    2.20
  -1  -6  -8    4.00    2.20
  -1   6   8    4.10    1.80
  -1  -6   8    3.10    1.90
  -1  -6   8    7.70    2.60
  -1  -6   8    5.50    2.40
  -1  -6   8    3.70    1.50
   1  -6  -8    8.30    2.70
  -1  -6   8    3.70    2.30
  -1  -6   8    2.20    1.60
   1   6   8    5.50    2.50
   1  -6  -8    4.90    4.10
   1   6   8    4.60    1.90
   2  -6   8   33.80    4.20
   2  -6   8   38.50    4.30
   2  -6   8   31.00    3.80
  -2  -6  -8   39.40    4.70
  -2   6   8   35.60    4.10
   2  -6   8   30.20    4.50
   2   6  -8   39.60    4.90
   2   6   8   31.00    4.80
  -2  -6   8   31.60    3.50
   2  -6  -8   33.70    4.10
   2   6   8   30.90    4.20
  -2  -6   8   36.20    4.30
  -2  -6   8   40.90    4.30
  -2  -6   8   33.40    4.30
  -2  -6   8   34.50    3.70
  -2  -6   8   37.70    4.30
   3  -6   8   12.60    4.90
  -3   6   8    9.80    2.50
   3  -6   8    8.10    4.70
   3  -6   8    2.30    3.90
   3   6  -8    6.50    4.10
   3  -6   8    9.90    2.30
  -3  -6  -8   14.00    3.70
  -3   6   8   13.00    2.30
  -3  -6   8   10.80    2.70
  -3   6  -8   10.00    2.40
  -3  -6   8    7.00    2.10
   3  -6  -8   11.20    2.80
  -3   6  -8   13.70    3.10
   3   6   8    7.30    3.00
  -3  -6   8    8.70    3.30
  -3  -6   8    8.50    4.80
   4  -6   8   16.20    2.50
  -4  -6  -8   11.50    3.00
   4  -6   8    7.20    3.40
   4  -6   8   13.60    3.50
   4  -6   8   11.30    3.30
  -4   6   8   13.70    3.00
   4   6   8    5.40    2.30
   4   6   8   10.30    2.50
  -4  -6   8    4.30    2.00
  -4   6  -8    7.10    2.70
  -4  -6   8    9.20    2.70
  -4  -6   8   11.90    2.40
  -4   6  -8   13.90    2.70
  -4  -6   8    7.10    6.40
   5  -6   8    8.20    2.90
   5  -6   8   10.00    2.50
   5  -6   8   20.90    3.70
   5  -6   8    7.80    2.50
  -5   6   8   17.80    3.40
   5   6   8   13.10    2.90
  -5   6  -8   11.70    2.80
  -5   6  -8    6.90    1.80
  -5  -6   8   16.30    3.40
  -5  -6   8   10.20    2.80
  -5  -6   8    9.30    2.60
   6  -6   8    0.70    1.80
  -6   6   8    0.60    2.10
   6  -6   8    1.20    1.90
   6   6  -8   -0.70    2.00
  -6  -6   8    1.00    2.00
   6   6   8    1.80    2.00
  -6   6  -8    2.40    2.40
  -6  -6   8    2.40    2.00
  -6   6  -8    1.10    1.40
   7   6  -8    4.60    1.90
  -7   6   8    5.80    1.80
  -7  -6  -8    4.00    1.50
   7  -6   8    3.40    1.40
  -7  -6  -8    4.90    1.60
  -7  -6   8    4.80    2.00
  -7   6  -8    8.30    2.40
   7   6   8    6.60    1.80
  -7  -6   8    8.30    2.00
  -7   6  -8    8.50    2.40
   8   6  -8    9.20    1.50
  -8  -6   8    6.80    1.50
   0  -7  -8   17.00    3.40
   0  -7  -8   24.50    4.40
   0   7   8   28.20    3.90
   0  -7   8   18.70    4.50
   0  -7   8   19.10    3.40
   0  -7   8   17.50    2.80
   0  -7   8   25.30    4.00
   1  -7   8   32.40    6.00
  -1  -7  -8   37.80    4.60
  -1   7   8   33.90    4.40
  -1  -7  -8   42.70    6.80
   1  -7   8   34.90    4.00
   1  -7   8   40.70    5.10
  -1  -7   8   37.50    7.30
  -1  -7   8   36.80    5.80
   1  -7  -8   33.10    4.00
  -1  -7   8   34.10    4.20
  -1  -7   8   34.80    4.80
   1  -7  -8   41.50    6.80
  -2   7   8   23.20    3.40
   2  -7   8   21.60    4.00
   2  -7   8   26.70    4.20
   2  -7   8   21.10    4.30
  -2  -7  -8   20.90    3.60
  -2  -7   8   24.00    5.30
  -2  -7   8   18.70    3.20
  -2  -7   8   23.60    3.20
  -2  -7   8   29.30    4.40
   2  -7  -8   26.20    4.00
  -2  -7   8   30.80    4.00
   3  -7   8   -0.10    2.70
  -3   7   8   -1.40    2.00
   3  -7   8    1.00    2.90
  -3   7   8   -0.80    1.70
  -3  -7  -8    0.10    2.30
   3  -7   8   -1.10    3.90
  -3  -7   8   -0.80    1.80
  -3  -7   8    1.90    6.30
  -3  -7   8    0.30    1.70
   3  -7  -8   -0.80    2.00
  -3  -7   8    3.90    2.90
  -3  -7   8   -8.30    3.10
  -3   7  -8    4.80    2.10
   4  -7   8   17.60    5.50
  -4   7   8   12.60    3.00
   4  -7   8    6.20    4.30
  -4  -7   8   13.70    3.50
   4   7   8   10.50    3.50
  -4   7  -8   18.50    4.00
  -4  -7   8   13.60    7.10
  -4   7  -8    8.30    2.30
  -4  -7   8    3.90    2.30
   5   7  -8   13.40    4.80
   5  -7   8   21.80    4.00
   5  -7   8   24.80    3.50
  -5   7   8   29.00    4.00
   5  -7   8   29.50    4.10
  -5  -7   8   17.20    3.10
  -5   7  -8   33.20    5.30
  -5  -7   8   22.70    3.40
   5   7   8   31.30    3.80
  -6  -7  -8    1.80    1.60
   6  -7   8   -2.10    1.50
   6   7  -8    2.20    2.00
  -6   7   8    0.30    1.50
  -6  -7   8    2.20    1.90
  -6  -7   8    1.20    1.60
   6   7   8    1.00    1.70
  -6   7  -8    0.50    1.60
  -6   7  -8   -1.10    2.50
   7   7  -8    1.70    1.30
  -7  -7  -8    2.50    1.40
  -7  -7  -8    1.90    1.20
  -7   7   8   -0.50    1.00
  -7   7  -8    3.20    1.20
  -7  -7   8    1.00    1.30
  -7  -7   8    0.50    1.40
   0  -8  -8   42.00    5.00
   0  -8   8   46.80    5.90
   0  -8   8   41.70    5.00
   0  -8  -8   41.30    4.90
   0  -8   8   44.40    5.50
  -1  -8  -8    1.10    2.60
   1  -8   8    2.30    2.70
   1  -8   8    1.50    3.00
   1  -8   8    3.70    3.20
  -1  -8   8    2.10    3.10
  -1  -8   8    1.00    1.70
  -1  -8   8   -0.20    4.00
  -1  -8   8   -3.80    1.70
  -1  -8   8    0.80    1.90
   1  -8  -8    1.60    2.50
   1  -8  -8    3.20    2.50
  -2  -8  -8   43.00    5.10
   2  -8   8   43.70    5.30
  -2   8   8   31.30    4.80
   2  -8   8   55.39    6.40
   2  -8   8   54.59    6.40
  -2  -8   8   48.80    5.00
  -2  -8   8   52.59    5.00
  -2  -8   8   46.50    8.00
   2  -8  -8   44.50    5.10
  -2  -8   8   39.30    6.60
   3  -8   8    5.00    4.70
   3  -8   8    0.10    3.50
  -3   8   8   -0.80    1.80
  -3  -8  -8    1.10    2.50
   3  -8   8   -0.90    2.60
  -3  -8   8   -0.60    2.10
  -3  -8   8    4.50    2.90
  -3  -8   8    2.40    2.30
  -3  -8   8   -0.70    7.60
   4  -8   8    1.80    3.70
   4  -8   8    2.20    2.30
  -4   8   8    1.30    1.90
   4  -8   8    5.20    2.80
  -4  -8   8    2.00    1.80
  -4  -8   8    4.60    2.00
  -4   8  -8    3.70    1.50
   4   8   8    5.50    2.10
  -4  -8   8    3.20    6.30
   5  -8   8    5.30    4.40
  -5   8   8    3.70    1.90
   5  -8   8    8.90    2.40
  -5   8  -8   11.20    2.20
  -5  -8   8    8.50    2.50
   5   8   8    8.10    2.20
  -5  -8   8    4.30    1.90
  -6  -8  -8   -0.30    1.20
   6  -8   8    0.30    1.20
  -6  -8  -8    0.10    1.00
  -6   8   8    1.80    1.40
   6   8  -8    0.30    1.50
   6   8   8    1.10    1.40
  -6  -8   8    1.10    1.50
  -6  -8   8    1.20    1.50
  -6   8  -8    0.20    1.40
   0  -9   8   16.30    6.20
   0  -9   8   26.50    4.50
   0  -9  -8   22.40    5.60
   1  -9   8    6.10    6.20
  -1  -9  -8    1.00    2.70
   1  -9   8    6.20    4.00
   1  -9   8   -0.30    1.60
   1  -9  -8   -0.60    3.20
  -1  -9   8   -1.60    8.50
   1  -9  -8    1.70    2.00
  -1  -9   8    3.90    2.10
   2  -9   8    7.70    4.00
  -2  -9  -8    1.50    2.20
   2  -9   8    5.10    4.60
   2  -9   8    7.90    3.20
  -2  -9   8   10.60    7.40
  -2  -9   8    1.80    9.60
  -2  -9   8    3.50    2.00
   3  -9   8   -1.70    4.90
   3  -9   8   -1.00    2.10
  -3  -9  -8    2.80    2.20
   3  -9   8    0.40    2.20
  -3  -9   8   -3.50    3.00
  -3  -9   8   -0.30    1.50
  -3   9  -8    0.20    1.60
  -3  -9   8    6.40    8.40
   4  -9   8   -0.80    1.60
   4  -9   8   -2.60    5.70
  -4  -9   8    0.00    1.60
  -4  -9   8   -3.00    1.60
   4   9   8    0.80    1.70
  -4   9  -8    2.60    1.60
  -4  -9   8   -0.60    3.40
  -5  -9  -8    1.20    0.90
   5  -9   8    1.90    1.60
  -5  -9  -8    0.80    1.20
   5  -9   8    2.20    4.10
   5   9   8    1.80    1.50
  -5  -9   8    0.90    1.20
  -5   9  -8    3.10    1.60
  -5  -9   8   -1.60    3.00
  -6  -9  -8    2.20    0.90
  -6  -9   8    2.40    1.10
   0 -10  -8   -0.20    1.70
   0 -10   8   -4.00    3.50
   0 -10   8   -1.60   10.00
   1 -10   8    5.30    8.20
   1 -10   8    4.40    3.40
  -1 -10  -8    2.90    2.00
  -1 -10   8   -3.80    9.70
   1 -10  -8    3.30    1.60
  -1 -10   8   -5.40    5.60
   2 -10   8    6.90    6.90
  -2 -10  -8    1.10    1.60
   2 -10   8    1.80    2.40
  -2 -10   8    8.30    8.50
  -2 -10   8   -3.80    7.70
  -2 -10   8   -1.20    1.30
  -3 -10  -8    1.40    1.30
   3 -10   8   13.10    7.40
   3 -10   8    1.20    2.20
  -3 -10   8    0.20    1.30
  -3 -10   8    0.70    5.90
   3  10   8    1.90    1.70
   4 -10   8   -1.80    5.20
   4 -10   8    2.30    1.80
  -4 -10  -8    0.70    1.20
  -4 -10   8    1.70    2.00
   4  10   8    1.60    1.40
  -4 -10   8    2.30    1.20
  -5 -10  -8    0.80    0.80
   5  10   8    3.10    1.00
  -5 -10   8    1.60    0.90
   0 -11   8    1.10    5.00
   0 -11   8    4.30    7.80
   1 -11   8    3.00    8.20
   1 -11   8   -1.10    4.00
  -1 -11   8    3.40    6.80
  -1 -11   8    5.60    5.90
   2 -11   8   -0.10    3.00
   2 -11   8    2.90    6.60
  -2 -11   8    4.40    5.00
   2  11   8    2.90    1.40
   3 -11   8   -2.80    5.40
   3 -11   8    1.20    2.50
  -3 -11   8    0.30    1.40
   3  11   8    0.90    1.10
   0   0   9   -0.10    0.90
   0   0   9    0.80    1.90
   0   0  -9   -0.30    1.90
  -1   0   9  490.75   29.50
  -1   0  -9  496.55   33.60
  -1   0  -9  503.75   26.00
  -1   0   9  522.95   25.80
   1   0   9  522.85   30.10
   1   0  -9  492.15   29.20
   2   0  -9   36.90    5.50
  -2   0  -9   30.80    3.00
  -2   0  -9   35.30    7.10
   2   0   9   40.30    7.90
   2   0   9   37.60    3.30
  -2   0   9   30.40    5.90
  -2   0   9   31.70    3.00
   3   0   9  201.48   11.50
   3   0   9  210.08   12.00
  -3   0   9  223.28   12.80
   3   0   9  198.88   11.70
  -3   0   9  197.48   11.40
   4   0   9  131.09    7.60
  -4   0   9  108.29    7.70
   4   0  -9   96.69   10.00
  -4   0   9  117.79    7.80
   4   0   9  115.09    7.70
  -4   0  -9  120.09    7.40
  -4   0   9  117.99    7.50
  -4   0   9  120.39    7.50
   4   0   9  123.69    7.80
  -4   0   9  119.49    8.80
   4   0   9  115.29    7.30
  -5   0   9   73.59    5.70
  -5   0   9   80.29    6.90
   5   0   9   65.69    5.80
  -5   0   9   75.99    5.50
   5   0   9   63.09    4.90
  -5   0  -9   72.09    6.40
  -5   0   9   66.79    5.70
  -5   0   9   76.59    5.60
  -5   0  -9   66.69    5.20
   5   0  -9   76.29    6.30
  -6   0   9  240.28   14.80
   6   0   9  217.58   13.80
   6   0  -9  230.08   13.80
  -6   0   9  228.08   13.50
  -6   0   9  227.38   13.10
  -6   0  -9  232.88   14.00
  -6   0  -9  229.58   14.20
  -6   0   9  224.48   12.90
  -6   0  -9  200.68   14.10
  -6   0   9  238.18   13.50
  -7   0   9    0.10    2.20
   7   0   9    3.60    2.50
  -7   0  -9    0.20    1.30
  -7   0  -9    0.40    2.10
  -7   0   9    1.70    1.90
  -7   0   9   -0.30    2.30
  -7   0  -9    3.40    2.70
   7   0  -9    0.90    3.10
   8   0  -9   -1.60    1.80
  -8   0  -9   -1.50    1.40
  -8   0   9    1.00    1.20
  -8   0  -9    0.00    2.00
   8   0   9   -0.50    1.60
  -8   0   9   -0.20    1.50
   9   0   9    1.00    1.10
  -9   0   9    4.00    1.20
  -9   0   9    1.30    0.70
  -9   0  -9    0.80    1.00
   0   1  -9  595.64   32.60
   0   1  -9  654.83   35.30
   0  -1   9  633.34   32.70
   0   1   9  637.64   37.00
   0  -1  -9  696.83   37.50
  -1   1   9  210.08   11.70
   1  -1   9  211.18   11.60
  -1   1   9  213.68   15.90
   1   1  -9  215.48   14.50
  -1   1  -9  217.08   11.80
   1   1   9  212.28   16.10
  -1   1  -9  246.28   16.80
   1  -1  -9  236.28   16.20
   1   1   9  212.58   12.10
  -1  -1   9  224.08   11.80
  -2  -1  -9   29.80    6.50
   2  -1   9   27.40    2.20
  -2   1   9   28.90    2.80
  -2   1   9   29.90    6.00
   2  -1   9   21.40    5.00
   2   1   9   27.30    3.10
  -2   1  -9   26.70    2.40
  -2  -1   9   27.20    2.90
   2  -1  -9   17.90    4.30
   2   1   9   19.90    5.60
  -2   1  -9   28.90    9.90
  -3  -1  -9  254.07   27.40
  -3   1   9  235.38   12.70
  -3   1   9  223.78   13.50
  -3   1   9  237.38   13.00
   3  -1   9  230.78   13.20
  -3  -1  -9  227.28   12.70
   3  -1   9  217.68   12.00
   3  -1   9  237.18   12.90
   3   1   9  225.28   13.10
  -3  -1   9  236.48   13.70
   3   1   9  270.77   23.20
   3   1   9  230.48   13.00
   3   1   9  244.58   13.20
  -3  -1   9  245.08   12.90
  -3  -1   9  211.48   18.10
   4  -1   9    6.40    2.20
  -4   1   9    7.30    2.00
  -4   1   9    7.50    1.90
  -4   1   9    6.70    2.20
  -4   1   9    6.30    2.10
   4  -1   9    2.60    1.40
   4   1  -9    2.00    2.20
   4  -1   9    8.30    2.10
  -4  -1  -9    8.60    1.90
   4  -1   9    5.90    1.80
   4  -1  -9    4.90    2.00
   4   1   9    9.20    1.90
   4   1   9    4.20    2.00
  -4  -1   9    3.60    1.60
  -4  -1   9    4.00    2.20
  -4  -1   9    6.00    1.90
  -4  -1   9    8.90    2.30
  -4   1  -9    7.00    1.90
   4   1   9    7.60    2.00
   4   1   9    6.20    2.00
  -4  -1   9    3.90    1.70
   5  -1   9   27.20    3.70
   5   1  -9   19.60    3.30
  -5   1   9   21.70    3.10
   5  -1   9   23.20    3.40
  -5  -1  -9   23.70    3.00
  -5   1   9   25.00    4.30
  -5  -1  -9   32.50    4.30
  -5   1   9   22.70    3.30
  -5   1   9   23.50    3.10
   5  -1   9   32.40    3.50
  -5   1   9   25.50    3.50
  -5  -1   9   20.50    3.10
  -5   1  -9   34.10    4.70
  -5  -1   9   27.30    4.60
   5   1   9   20.60    3.40
  -5  -1   9   24.60    3.50
   5   1   9   22.10    3.90
  -5  -1   9   19.50    3.60
  -5  -1   9   16.60    2.80
  -5   1  -9   24.70    3.40
   5  -1  -9   20.80    3.40
  -5   1  -9   31.90    4.10
   5   1   9   22.30    2.90
  -6  -1  -9   23.30    3.00
  -6   1   9   28.20    3.60
  -6   1   9   24.90    4.40
  -6   1   9   25.60    4.70
   6  -1   9   24.60    4.00
  -6   1   9   29.10    4.00
  -6  -1  -9   29.20    4.20
  -6  -1  -9   28.00    4.40
   6   1  -9   24.10    3.90
  -6  -1   9   16.20    3.50
  -6  -1   9   23.30    3.40
  -6   1  -9   26.40    4.00
  -6   1  -9   25.00    3.50
  -6  -1   9   18.10    3.20
  -6   1  -9   27.00    4.50
  -6  -1   9   29.80    3.80
   6  -1  -9   23.60    3.90
  -6  -1   9   26.60    3.50
   6   1   9   33.00    4.60
   7  -1   9    3.90    2.60
   7   1  -9    6.60    2.80
  -7   1   9    4.60    2.10
  -7  -1  -9    2.60    2.30
  -7   1   9    1.10    2.40
  -7  -1  -9   -0.70    2.10
  -7   1   9    1.10    1.80
  -7   1  -9    1.50    2.20
   7  -1  -9    0.60    2.30
  -7  -1   9   -1.60    4.00
  -7  -1   9    0.90    1.60
  -7   1  -9    1.10    2.20
  -7  -1   9   -6.50    2.10
  -7   1  -9    1.50    1.50
  -7  -1   9    0.60    1.80
   7   1   9    0.80    2.10
  -8   1   9    0.90    1.40
   8   1  -9    3.10    2.10
   8  -1   9    2.90    1.60
  -8  -1  -9    3.20    2.00
  -8  -1   9    3.90    2.00
  -8   1  -9    4.40    2.10
  -8   1  -9    3.30    1.70
  -8  -1   9    4.50    1.80
   8   1   9    3.20    2.20
  -9   1   9   -0.70    0.70
  -9  -1  -9   -0.30    0.90
   9   1  -9    0.50    1.00
   9  -1   9    0.60    0.80
  -9   1  -9    0.70    2.30
  -9  -1   9    0.10    0.90
   9   1   9    0.00    0.80
   0  -2   9    8.40    1.70
   0  -2  -9    8.30    3.60
   0   2   9    7.60    2.80
   0   2  -9    7.20    1.40
   0   2  -9   11.00    2.60
   1  -2   9  370.66   19.60
   1   2  -9  355.46   20.30
   1  -2   9  374.96   22.60
  -1  -2  -9  412.36   26.10
  -1   2   9  355.76   24.90
  -1   2  -9  398.56   22.70
   1  -2  -9  386.26   25.20
  -1  -2   9  398.96   19.90
   1   2   9  398.56   25.70
  -1   2  -9  369.96   19.50
   1   2   9  396.76   20.40
  -2  -2  -9   51.89    8.80
   2  -2   9   38.70    2.60
  -2   2   9   30.80    6.50
  -2   2   9   37.00    3.30
  -2  -2   9   45.70    5.10
  -2  -2   9   35.80    3.40
   2   2   9   39.00    3.90
   2   2   9   47.50    8.40
   2  -2  -9   36.70    7.30
  -3   2   9  394.56   21.50
  -3  -2  -9  390.16   20.50
   3  -2   9  377.96   20.80
  -3   2   9  381.66   21.10
   3  -2   9  393.46   20.80
  -3   2   9  411.56   20.70
   3  -2   9  451.35   22.10
  -3  -2  -9  389.56   30.40
   3  -2   9  433.36   22.40
  -3  -2   9  417.46   20.90
  -3  -2   9  401.96   21.30
   3   2   9  341.97   29.30
  -3  -2   9  354.56   24.30
  -3  -2   9  387.66   21.20
   3  -2  -9  376.06   20.90
   3   2   9  400.36   21.00
   3   2   9  400.16   20.60
   3   2   9  405.36   21.40
   3   2   9  375.06   21.00
   4  -2   9   64.39    5.00
   4  -2   9   60.19    4.90
  -4   2   9   57.49    5.10
   4  -2   9   64.59    5.10
  -4  -2  -9   58.49    4.80
   4  -2   9   61.19    4.80
  -4   2   9   60.09    5.80
  -4   2   9   63.09    4.80
   4   2   9   61.99    4.70
  -4   2  -9   65.59    4.80
  -4  -2   9   52.79    4.30
  -4  -2   9   66.09    5.40
   4   2   9   58.69    5.40
  -4  -2   9   58.69    4.90
  -4  -2   9   62.89    6.00
  -4  -2   9   54.89    5.10
   4  -2  -9   66.99    5.50
   4   2   9   59.49    5.00
  -5   2   9   83.69    7.30
  -5   2   9   94.09    5.90
   5  -2   9   84.29    6.30
   5  -2   9   79.49    6.00
   5   2  -9   71.19    6.70
  -5  -2  -9   75.29    5.40
  -5   2   9   83.19    6.50
  -5  -2  -9   77.49    6.50
  -5   2   9   80.19    5.80
   5  -2   9   84.79    6.10
  -5   2  -9   84.89    6.00
  -5   2  -9   83.49    7.10
   5   2   9   79.59    6.40
   5  -2  -9   85.79    6.80
   5   2   9   75.29    5.80
  -5  -2   9   81.59    7.30
  -5  -2   9   79.39    6.20
  -5  -2   9   80.49    6.00
  -5  -2   9   78.29    5.60
  -5  -2   9   78.79    6.50
  -6   2   9   19.90    2.80
  -6   2   9   20.80    3.50
  -6  -2  -9   16.80    2.00
  -6  -2  -9   19.90    3.60
   6  -2   9   15.60    3.30
  -6   2   9   26.10    4.60
   6   2  -9   17.70    3.40
   6  -2   9   17.10    2.70
  -6   2  -9   15.40    3.60
  -6  -2   9   21.40    2.90
   6  -2  -9   17.70    3.40
  -6   2  -9   21.60    4.00
  -6  -2   9   17.70    3.70
   6   2   9   21.50    2.90
  -6   2  -9   19.40    2.90
  -6  -2   9   13.10    2.90
   6   2   9   18.00    3.50
  -6  -2   9   24.00    3.60
   7   2  -9   19.60    3.60
   7  -2   9   13.40    3.10
  -7   2   9   19.10    3.20
  -7   2   9   27.10    4.50
  -7  -2  -9   28.80    4.00
  -7  -2  -9   32.80    4.90
  -7   2  -9   18.40    3.30
  -7  -2   9   23.50    3.40
   7   2   9   19.00    3.60
  -7  -2   9   18.90    2.70
  -7   2  -9   23.10    3.70
  -7   2  -9   20.70    3.00
  -7  -2   9   24.50    3.20
   7  -2  -9   21.20    3.40
  -8  -2  -9    4.20    2.10
   8  -2   9    0.00    1.40
  -8  -2  -9    3.90    2.00
   8  -2   9   -0.10    1.50
   8   2  -9    2.90    2.70
  -8  -2   9    1.30    1.70
  -8   2  -9    3.10    1.50
   8   2   9    0.70    1.60
   8  -2  -9    3.70    1.60
  -8  -2   9    4.80    1.90
  -8  -2   9    2.00    1.10
  -8   2  -9    4.00    2.20
   9   2  -9   -0.60    1.00
  -9   2   9    1.50    0.80
  -9  -2  -9    1.40    0.80
   9  -2   9    0.20    0.80
   9   2   9    2.80    1.10
   0   3  -9   40.70    4.30
   0  -3  -9   64.19    9.10
   0   3   9   43.70    7.90
   0  -3   9   51.79    3.60
  -1  -3  -9  330.27   24.00
  -1   3   9  318.27   23.70
   1  -3   9  249.58   14.20
   1   3   9  215.98   19.80
  -1   3  -9  258.67   15.60
  -1  -3   9  255.07   14.50
   1  -3  -9  340.37   23.60
   1   3   9  271.27   15.20
   2  -3   9  390.76   21.90
   2  -3   9  398.66   21.10
  -2  -3  -9  374.16   29.40
  -2  -3  -9  419.96   21.70
  -2   3   9  460.25   32.50
   2  -3   9  431.96   22.70
  -2   3  -9  400.86   25.50
   2  -3  -9  409.26   22.00
   2   3   9  390.16   22.50
  -2  -3   9  416.76   22.40
   2   3   9  450.75   31.90
  -2  -3   9  450.45   22.60
   2  -3  -9  511.65   32.60
  -2  -3   9  426.26   22.00
  -3   3   9    4.20    1.80
   3  -3   9    3.70    1.50
   3  -3   9    1.80    1.70
  -3  -3  -9    2.30    1.20
   3  -3   9    2.10    1.50
   3  -3   9    5.10    2.20
  -3   3   9    3.40    2.50
  -3   3   9    2.60    1.50
   3   3   9    1.90    1.80
   3   3   9    0.50    1.50
   3  -3  -9    4.70    1.90
  -3  -3   9    2.20    1.70
   3   3   9    3.00    1.50
  -3  -3   9   -0.80    1.80
  -3  -3   9    3.50    1.90
  -4  -3  -9   15.80    2.10
  -4   3   9   12.40    2.70
   4  -3   9    9.60    2.30
   4   3  -9   12.80    3.00
   4  -3   9   16.00    2.80
  -4   3   9   18.00    2.40
  -4  -3  -9   17.90    4.60
   4  -3   9    9.80    2.50
  -4   3   9   15.80    3.10
   4  -3   9   12.30    2.20
  -4  -3   9   18.50    3.00
  -4   3  -9   16.90    2.70
   4   3   9   18.00    3.60
  -4  -3   9   24.10    3.40
   4  -3  -9   12.00    2.70
   4   3   9   16.40    2.90
  -4  -3   9   13.20    2.50
  -4  -3   9   15.10    2.00
   5  -3   9   11.80    2.90
  -5  -3  -9   11.80    1.80
   5   3  -9   13.70    2.90
  -5  -3  -9   14.70    2.90
   5  -3   9   12.90    3.00
  -5   3   9   10.00    2.80
  -5   3   9   12.10    3.60
  -5   3   9   17.20    2.40
   5  -3   9   14.00    2.60
  -5  -3   9   13.50    2.60
  -5  -3   9    7.70    2.30
  -5   3  -9   13.40    2.60
   5   3   9   16.50    4.50
  -5   3  -9    7.70    3.00
   5  -3  -9   14.90    3.10
   5   3   9   14.30    3.30
  -5  -3   9   10.90    2.50
   6  -3   9    1.50    2.20
  -6   3   9    2.50    2.30
   6  -3   9    6.20    1.90
  -6   3   9    1.60    2.40
  -6  -3  -9    3.80    2.20
   6   3  -9    2.30    2.40
  -6  -3   9    0.80    1.30
  -6   3  -9    2.30    1.80
  -6  -3   9    1.70    1.60
  -6   3  -9    3.00    2.60
   6  -3  -9    3.90    2.50
  -6  -3   9    1.20    2.10
   6   3   9    4.50    2.20
   6   3   9    0.20    2.00
  -6  -3   9    1.30    2.10
   7  -3   9    2.60    2.30
   7   3  -9    2.60    2.40
  -7  -3  -9    4.80    2.40
  -7   3   9    2.90    2.70
  -7   3   9    1.80    2.00
   7  -3   9    3.30    1.90
  -7  -3  -9    7.20    2.50
   7   3   9    6.00    2.40
   7   3   9    1.50    1.70
  -7  -3   9    2.00    1.30
   7  -3  -9    4.40    2.00
  -7   3  -9    4.30    2.50
  -7  -3   9    3.50    2.10
  -7  -3   9    4.80    2.20
  -7  -3   9    3.70    1.90
  -7   3  -9    3.60    1.80
  -8  -3  -9    0.00    1.30
   8  -3   9   -1.10    1.10
   8  -3   9   -0.60    1.30
   8   3  -9    1.20    1.80
  -8   3   9    3.20    1.50
  -8  -3   9    0.20    1.10
  -8   3  -9    0.30    1.90
  -8   3  -9    0.30    0.90
   8   3   9    1.90    1.40
  -8  -3   9   -1.30    1.60
   0  -4  -9    4.70    1.90
   0  -4   9    7.40    2.30
   0  -4   9    5.10    1.90
   0   4   9    4.00    5.60
   0   4   9    2.90    1.50
   0   4  -9    2.00    1.20
   0  -4   9    6.20    1.50
   0  -4  -9   -4.00    5.30
   0   4  -9    6.20    1.40
  -1  -4  -9    5.70    6.90
   1  -4   9   17.70    2.30
   1  -4   9   21.70    3.10
   1  -4   9   12.90    2.30
   1  -4   9   17.40    2.00
  -1   4   9    8.10    4.30
   1   4  -9   16.30    2.60
  -1  -4  -9   16.00    2.30
  -1  -4   9   14.80    2.50
  -1  -4   9   13.60    2.40
  -1  -4   9   20.90    3.10
   1  -4  -9   18.10    2.90
   1   4   9    9.90    5.80
  -1  -4   9   17.00    2.40
   1  -4  -9    7.10    7.60
  -2   4   9    3.20    8.60
  -2  -4  -9   11.90    2.50
  -2   4   9   13.90    2.40
   2  -4   9   13.50    2.50
   2  -4   9   10.70    2.60
   2  -4   9   12.20    2.10
  -2  -4  -9   17.20    2.10
   2   4  -9   11.40    2.40
   2  -4  -9   13.20    2.20
  -2   4  -9    8.60    4.30
   2   4   9   15.10    2.90
   2  -4  -9    6.20    8.40
  -2  -4   9    6.40    1.90
   2   4   9   11.30    2.40
  -2  -4   9   12.50    2.90
  -2  -4   9   15.50    2.80
   3  -4   9   21.30    2.70
   3  -4   9   23.60    3.60
   3  -4   9   17.50    2.80
  -3   4   9   19.50    2.70
   3   4  -9   17.10    3.30
  -3  -4  -9   21.00    2.40
   3  -4   9   23.50    3.30
  -3   4   9   19.20    3.10
  -3  -4   9   13.80    2.40
  -3  -4   9   22.90    3.40
   3   4   9   13.80    2.80
  -3  -4   9   19.80    3.30
   3   4   9   18.00    2.60
  -3  -4   9   17.70    2.70
   3  -4  -9   21.30    2.80
   3   4   9   21.80    3.10
  -3   4  -9   22.20    2.90
   4  -4   9   26.30    3.60
  -4   4   9   37.90    4.00
  -4   4   9   37.00    4.80
   4  -4   9   30.30    4.00
  -4   4   9   32.70    3.30
   4  -4   9   29.70    3.90
   4  -4   9   32.80    3.70
   4   4  -9   34.40    5.00
  -4   4  -9   33.40    3.70
   4   4   9   32.50    4.90
   4   4   9   32.50    3.80
  -4  -4   9   33.30    4.20
  -4  -4   9   40.10    4.40
   4   4   9   34.60    4.30
  -4  -4   9   33.00    3.90
  -5   4   9   59.29    6.60
   5   4  -9   61.79    5.70
   5  -4   9   69.59    5.50
   5  -4   9   61.79    5.60
   5  -4   9   61.69    5.60
  -5   4   9   69.99    6.10
  -5  -4   9   63.49    5.40
  -5  -4   9   59.69    5.30
  -5   4  -9   59.09    5.30
   5   4   9   69.09    5.50
  -5  -4   9   66.19    5.90
   5  -4  -9   65.09    5.50
   5   4   9   59.29    5.60
  -5   4  -9   80.29    7.40
  -5  -4   9   69.69    6.10
  -6   4   9   14.60    3.10
   6  -4   9   12.30    2.30
  -6   4   9   10.40    3.00
   6  -4   9   15.20    3.30
   6  -4   9   12.30    2.80
   6   4  -9   16.40    3.90
   6  -4  -9   12.10    2.50
  -6   4  -9   17.30    2.70
   6   4   9   15.90    2.90
  -6  -4   9   20.30    3.10
  -6  -4   9   18.70    3.40
   6   4   9    6.50    3.10
  -6  -4   9    7.00    2.00
  -6   4  -9   12.00    2.90
  -6  -4   9   20.80    3.50
  -7   4   9   -0.10    1.70
   7   4  -9   -0.90    1.80
  -7  -4  -9   -0.10    1.70
   7  -4   9    2.70    2.00
   7  -4   9    0.70    1.60
   7   4   9   -0.40    1.80
   7   4   9   -0.60    2.50
  -7   4  -9   -0.20    1.40
  -7   4  -9   -0.20    2.50
  -7  -4   9   -0.60    1.70
  -7  -4   9   -0.80    1.40
  -7  -4   9   -0.20    1.40
   8  -4   9    0.50    1.20
  -8   4   9   -0.30    1.30
   8   4  -9    1.80    1.70
  -8  -4  -9    1.10    1.30
   8   4   9    1.00    1.30
  -8  -4   9    0.70    1.50
  -8  -4   9    0.20    1.50
  -8  -4   9   -1.20    1.50
  -8   4  -9    0.20    1.20
  -8   4  -9   -1.50    1.70
   0  -5   9   59.29    4.70
   0  -5  -9   62.29    5.30
   0  -5  -9   63.89    4.40
   0   5   9   67.49    5.70
   0  -5   9   72.79    5.30
   0  -5   9   67.59    5.30
   0  -5  -9   64.29    5.20
   0   5   9   64.89    5.30
   0  -5   9   68.99    4.70
   1  -5   9   70.89    4.40
  -1  -5  -9   67.69    5.40
  -1  -5  -9   65.09    4.40
   1  -5   9   70.49    5.50
   1   5  -9   72.79    5.10
   1  -5   9   65.59    4.90
   1  -5   9   71.59    5.70
   1  -5  -9   70.59    5.40
  -1  -5   9   69.89    5.50
   1  -5  -9   70.99    4.60
  -1  -5   9   71.29    5.60
  -1  -5   9   55.39    5.10
   1   5   9   58.29    5.60
  -1  -5   9   67.99    5.40
  -1  -5   9   61.19    4.90
   1   5   9   64.89    5.30
  -1  -5   9   61.19    4.90
   2  -5   9   14.30    2.40
   2  -5   9   20.80    3.50
   2   5  -9   18.20    3.50
   2  -5   9   11.90    2.10
  -2   5   9   13.80    2.90
  -2  -5  -9   18.70    3.10
   2  -5   9   16.50    2.80
   2  -5   9   18.10    3.30
  -2  -5   9   15.90    2.40
   2   5   9   13.80    2.80
  -2  -5   9   15.40    2.70
  -2  -5   9   12.50    3.10
   2  -5  -9   17.30    2.90
  -2  -5   9   14.50    3.70
  -2  -5   9   16.40    2.90
   2   5   9   14.30    2.90
   2  -5  -9   17.10    2.30
  -2  -5   9   10.70    3.00
  -3   5   9   80.19    6.10
   3  -5   9   60.39    7.60
   3  -5   9   68.19    4.90
   3   5  -9   68.39    6.80
   3  -5   9   74.59    6.20
  -3   5   9   80.49    5.40
   3  -5   9   65.69    5.60
  -3   5  -9   70.29    5.50
   3  -5  -9   74.59    5.10
  -3  -5   9   65.19    7.90
   3   5   9   70.39    6.70
  -3  -5   9   64.49    6.50
  -3  -5   9   62.89    7.20
  -3  -5   9   70.79    5.30
   3   5   9   74.69    5.80
  -3  -5   9   69.59    5.60
  -4   5   9    9.20    2.00
   4  -5   9   12.20    2.40
   4  -5   9   10.40    3.20
  -4   5   9   13.50    3.00
   4  -5   9    8.20    2.80
   4  -5   9   16.10    3.50
   4  -5   9   14.60    3.00
  -4  -5   9   14.10    2.50
  -4  -5   9    6.60    2.50
   4   5   9    8.60    2.30
  -4   5  -9    8.50    2.80
   4  -5  -9   12.10    2.20
  -4  -5   9   14.20    3.00
  -4  -5   9    6.40    2.20
   4   5   9   11.40    2.80
  -5   5   9   25.10    3.90
   5  -5   9   18.70    3.40
   5   5  -9   19.30    3.40
   5  -5   9   26.00    4.00
   5  -5   9   15.10    2.70
   5  -5   9   20.20    3.30
  -5   5  -9   26.30    3.70
  -5  -5   9   25.00    3.40
  -5  -5   9   16.00    3.30
   5   5   9   21.00    3.20
   5   5   9   24.20    3.80
  -5  -5   9   22.10    3.10
  -5  -5   9   15.40    3.10
   5  -5  -9   17.10    2.40
  -5   5  -9   22.60    3.90
  -6   5   9    7.90    2.80
   6  -5   9   10.60    2.30
   6  -5   9    6.60    2.50
   6  -5   9    4.10    2.40
   6   5  -9    8.40    2.70
   6   5   9    7.00    3.80
   6   5   9    4.70    2.30
  -6  -5   9    4.20    2.20
  -6   5  -9    5.30    1.80
  -6  -5   9    4.70    2.10
  -6   5  -9    7.00    2.50
  -6  -5   9   10.50    2.60
  -7  -5  -9    3.40    1.70
   7   5  -9    2.90    2.00
   7  -5   9    3.20    1.80
   7  -5   9    0.90    1.60
  -7   5  -9    5.40    2.50
  -7  -5   9    5.00    2.30
   7   5   9    3.50    1.70
   7   5   9    3.20    1.90
  -7  -5   9    6.70    2.20
  -7  -5   9    2.30    1.40
  -7   5  -9    3.70    1.50
  -8  -5  -9    1.50    1.00
  -8   5  -9    4.60    2.10
  -8  -5   9    0.80    1.30
  -8  -5   9    3.40    1.40
   0  -6   9   13.60    2.20
   0  -6  -9   21.20    3.40
   0  -6  -9   21.40    3.50
   0   6   9   18.20    3.30
   0  -6   9   17.80    3.50
   0  -6   9   14.90    2.50
   0  -6   9   19.30    4.80
   0  -6   9   13.60    2.60
   0  -6   9   16.50    2.50
  -1  -6  -9  148.49    9.40
  -1   6   9  139.59    9.40
   1  -6   9  140.59    8.90
   1   6  -9  146.89    9.30
   1  -6   9  148.89    9.60
   1  -6   9  153.78    9.80
   1  -6   9  141.19    9.00
   1  -6  -9  140.89    9.10
   1   6   9  139.39    9.30
  -1  -6   9  137.39    8.80
  -1  -6   9  132.79    9.20
   1  -6  -9  154.68    9.60
  -1  -6   9  136.99    9.30
   1   6   9  141.29   11.50
  -1  -6   9  152.58    9.30
  -1  -6   9  153.28    8.90
  -1  -6   9  148.69    9.60
  -2   6   9    6.70    2.30
  -2  -6  -9    3.60    2.40
   2  -6   9    4.30    2.10
   2  -6   9    6.80    2.80
   2   6  -9    9.50    3.20
   2  -6   9   10.60    2.60
   2  -6   9    7.30    2.80
  -2  -6   9    7.60    2.70
  -2  -6   9    4.00    2.50
  -2  -6   9    8.50    2.80
  -2  -6   9    8.90    2.10
   2   6   9    5.90    2.90
  -2  -6   9    4.30    2.00
   2  -6  -9    8.10    2.60
   2   6   9    5.20    2.00
  -3   6   9    5.40    3.00
   3  -6   9    4.80    2.80
  -3   6   9   10.60    2.10
   3  -6   9    5.90    2.80
   3  -6   9    1.60    2.00
  -3  -6  -9    6.10    2.80
   3  -6   9    3.00    3.10
  -3  -6   9    2.70    1.70
  -3  -6   9    6.80    2.40
  -3   6  -9    7.30    2.70
  -3  -6   9    8.70    4.70
  -3  -6   9    3.70    2.20
  -3   6  -9    4.80    3.40
   3   6   9    5.30    2.30
   4  -6   9    5.20    3.00
   4  -6   9   10.90    3.20
   4  -6   9    5.60    3.60
   4  -6   9    3.60    1.80
  -4   6   9    7.40    2.50
  -4  -6   9    5.60    2.30
  -4  -6   9    5.30    2.10
  -4  -6   9    7.30    2.20
  -4   6  -9    3.80    2.60
  -4  -6   9   10.60    3.10
   4   6   9    7.10    2.30
  -4  -6   9   -1.60    2.60
   4   6   9    4.00    2.00
  -4   6  -9    6.30    2.40
   5  -6   9   26.00    3.70
   5  -6   9   34.70    5.90
  -5   6   9   31.20    6.10
   5  -6   9   38.60    4.90
  -5   6  -9   29.60    4.40
   5   6   9   34.30    4.10
  -5  -6   9   29.10    4.10
  -5  -6   9   35.20    3.70
  -5  -6   9   44.40    4.70
   5   6   9   34.60    4.50
  -5   6  -9   43.80    5.50
   6   6  -9   11.90    3.70
  -6   6   9   14.00    2.70
   6  -6   9   13.30    2.80
  -6   6  -9   16.70    3.20
   6   6   9   15.00    2.60
  -6  -6   9   13.90    2.80
   6   6   9    3.00    2.90
  -6  -6   9   16.50    2.90
  -7   6   9    3.00    1.50
  -7  -6  -9    2.50    1.60
   7   6  -9    3.60    1.60
  -7  -6  -9    2.30    1.40
   7  -6   9    3.30    1.30
  -7  -6   9    7.70    2.00
  -7   6  -9    8.00    1.70
  -7   6  -9    4.60    2.30
   7   6   9    4.90    1.30
  -7  -6   9    5.30    1.90
   0  -7   9    6.60    4.10
   0   7   9   14.40    2.90
   0  -7  -9    8.70    2.80
   0  -7  -9    6.30    2.70
   0  -7   9    6.20    3.00
   0  -7   9    9.20    2.10
   0  -7   9    7.40    3.10
   0  -7   9   11.00    2.30
   1  -7   9    6.80    2.30
  -1   7   9    7.60    2.50
  -1  -7  -9    5.80    2.60
   1  -7   9   12.20    3.40
   1  -7   9    8.70    3.30
   1  -7   9    7.10    2.50
  -1  -7   9    7.00    3.10
  -1  -7   9    7.30    2.70
  -1  -7   9    6.00    2.90
   1  -7  -9    8.70    2.90
  -1  -7   9    4.80    2.70
  -1  -7   9    5.90    2.80
   1  -7  -9    8.50    2.90
   2  -7   9   59.09    6.60
   2  -7   9   62.59    5.90
   2  -7   9   54.29    6.00
  -2  -7  -9   52.39    5.30
  -2   7   9   50.29    5.40
  -2  -7   9   61.99    6.50
  -2  -7   9   55.09    5.00
  -2  -7   9   56.59    6.00
  -2  -7   9   56.69    5.50
   2  -7  -9   64.69    5.50
  -2  -7   9   53.49    4.80
  -2  -7   9   59.99    5.60
  -3  -7  -9   39.10    4.80
  -3   7   9   35.00    4.20
   3  -7   9   23.10    5.10
  -3   7   9   36.50    4.10
   3  -7   9   30.80    4.60
   3  -7   9   27.50    4.50
  -3  -7   9   30.50    3.80
  -3  -7   9   35.80    5.80
  -3   7  -9   39.10    4.30
  -3  -7   9   36.40    4.60
  -3  -7   9   23.40    6.90
  -3   7  -9   33.80    6.10
  -4   7   9    3.40    2.70
   4  -7   9   -1.20    2.10
   4  -7   9    2.30    4.00
   4  -7   9    5.00    2.90
  -4  -7   9   -0.40    1.80
  -4  -7   9    3.60    1.90
  -4  -7   9   18.90    5.30
  -4   7  -9    4.60    2.60
  -4   7  -9    0.00    1.30
   4   7   9    1.50    2.00
  -4  -7   9    1.20    1.70
  -5   7   9    5.50    2.20
   5  -7   9    8.20    2.50
   5  -7   9   10.00    2.50
   5  -7   9    7.40    3.20
  -5   7  -9   10.00    2.80
  -5  -7   9    4.30    2.20
  -5  -7   9    6.30    2.20
   5   7   9    6.50    2.20
   6   7  -9    3.00    1.60
  -6   7   9    4.10    1.70
   6  -7   9   -1.60    1.30
  -6   7  -9    1.80    2.10
   6   7   9    1.90    2.50
  -6  -7   9    0.10    1.70
  -6   7  -9    1.70    3.70
  -7   7   9    0.50    1.00
  -7  -7  -9    1.60    1.20
  -7  -7  -9    0.50    0.80
   7   7  -9   -0.20    1.20
  -7   7  -9    2.10    1.10
  -7  -7   9    0.30    1.10
  -7  -7   9    0.70    1.50
   0  -8   9   75.39    6.70
   0  -8  -9   63.49    6.00
   0  -8   9   73.49    6.00
   0  -8   9   67.19    7.30
  -1   8   9   14.90    2.90
  -1  -8  -9   11.40    2.90
   1  -8   9   13.10    3.80
   1  -8   9   14.10    3.70
   1  -8   9   22.00    4.10
  -1  -8   9   12.20    4.40
  -1  -8   9   13.40    3.10
   1  -8  -9    8.50    2.70
  -1  -8   9   15.50    2.60
   1  -8  -9    8.90    3.20
  -1  -8   9    7.50    2.20
  -1  -8   9   12.80    3.80
  -2   8   9   59.79    5.90
   2  -8   9   63.29    7.00
  -2  -8  -9   66.89    6.80
   2  -8   9   65.99    6.40
  -2  -8   9   56.69   10.80
  -2  -8   9   50.09    5.90
  -2  -8   9   66.09   10.40
  -3  -8  -9    8.20    4.30
   3  -8   9   12.50    4.90
   3  -8   9   12.50    6.50
   3  -8   9   10.60    4.20
  -3   8   9    9.00    2.70
  -3  -8   9    7.30    8.10
  -3  -8   9   13.50    3.80
  -3  -8   9   14.50    2.90
   4  -8   9    7.10    2.90
   4  -8   9   10.40    3.90
   4  -8   9    8.60    3.20
  -4   8   9    8.90    2.40
  -4  -8   9    4.20    1.80
  -4  -8   9    1.70    5.10
  -4  -8   9    5.90    2.20
  -4   8  -9    5.70    1.60
   4   8   9   11.40    2.50
  -5   8   9    9.30    2.20
   5  -8   9    6.80    2.40
   5  -8   9    4.30    4.10
  -5  -8   9   17.40    2.70
  -5   8  -9   15.30    2.50
  -5  -8   9    8.00    2.20
   5   8   9   15.20    2.40
  -6  -8  -9    3.80    1.40
  -6  -8  -9    5.70    1.30
   6   8  -9    6.20    2.10
   6  -8   9    3.20    1.30
  -6   8   9    6.10    1.60
  -6  -8   9    6.80    1.90
  -6   8  -9   11.10    1.70
  -6  -8   9    6.90    1.80
   6   8   9    9.40    1.60
   0  -9   9   -2.00    1.90
   0  -9   9    2.50    3.10
   0  -9   9   -0.80    5.00
   0  -9  -9   -2.50    2.00
  -1  -9  -9    2.20    2.30
   1  -9   9    5.80    5.10
   1  -9   9   15.20    4.20
   1  -9   9    1.60    2.90
   1  -9  -9    2.50    2.30
  -1  -9   9    0.90    6.90
  -1  -9   9    2.60    4.80
  -1  -9   9    0.60    2.00
  -2  -9  -9    1.90    2.00
   2  -9   9    0.50    2.60
   2  -9   9    1.10    4.10
   2  -9   9    0.20    4.10
  -2  -9   9   -0.20    1.70
  -2  -9   9   -1.50    6.40
  -2  -9   9   -4.20    9.20
   3  -9   9   -1.70    4.20
   3  -9   9    2.30    2.80
   3  -9   9    0.80    2.20
  -3  -9   9    2.60    1.70
  -3  -9   9   -1.60    7.60
   3   9   9    3.00    1.80
  -3   9  -9   -0.40    2.00
  -3  -9   9    0.20    1.60
   4  -9   9    1.40    2.20
   4  -9   9   -2.10    6.50
  -4   9  -9    5.10    1.70
  -4  -9   9    2.10    1.60
   4   9   9    2.80    1.70
  -4  -9   9    1.90    2.40
  -4  -9   9    2.40    2.00
  -5  -9  -9    1.60    0.90
  -5  -9  -9   -0.10    1.20
   5  -9   9    1.50    3.90
   5  -9   9    0.30    1.30
  -5  -9   9    1.60    1.40
   5   9   9    2.90    1.40
  -5   9  -9    5.00    1.50
   0 -10  -9   -0.80    1.30
   0 -10   9   11.10    9.30
   0 -10   9    2.60    3.60
  -1 -10  -9    0.20    1.70
   1 -10   9   -2.30    7.40
   1 -10   9    1.50    3.20
  -1 -10   9   -3.20   10.30
  -1 -10   9   -2.40    5.80
   2 -10   9    2.20    2.50
   2 -10   9    4.70    6.20
  -2 -10   9    3.10    1.70
  -2 -10   9    2.70    7.50
   3 -10   9    1.00    2.10
   3 -10   9    1.10    6.10
  -3 -10  -9   -1.40    1.00
   3  10   9    0.80    1.50
  -3 -10   9   -1.50    1.10
  -3 -10   9    0.70    4.80
  -4 -10  -9    5.00    1.50
   4 -10   9    2.10    4.80
   4 -10   9    6.60    1.90
  -4 -10   9    4.50    1.30
   4  10   9   10.60    1.60
   0 -11   9    1.60    7.80
   0 -11   9    0.80    5.00
   1 -11   9    4.40    7.30
   1 -11   9    2.20    3.80
  -1 -11   9   -1.20    5.70
  -1 -11   9    4.50    5.30
   2 -11   9   -0.30    2.70
   2 -11   9    0.00    5.40
  -2 -11   9    1.00    4.60
   2  11   9    3.90    1.30
   3 -11   9   -1.60    4.60
   3 -11   9    1.10    2.40
   3  11   9    2.60    1.00
   0   0  10  983.50   54.89
   0   0  10  984.60   50.49
   0   0 -10 1070.49   55.39
   1   0 -10   11.10    3.50
   1   0  10   11.40    3.80
  -1   0 -10   14.70    4.00
  -1   0  10    7.50    1.60
  -1   0  10   11.20    3.50
  -2   0  10    4.10    1.30
  -3   0  10   41.30    5.90
  -3   0  10   43.60    4.10
   3   0  10   36.20    3.90
  -3   0  10   43.80    6.20
  -3   0 -10   35.80    3.60
   3   0  10   43.70    3.70
   3   0  10   39.40    3.60
  -3   0  10   42.80    3.70
  -4   0  10   74.49    5.50
  -4   0  10   60.69    5.20
  -4   0  10   70.09    5.00
  -4   0  10   64.59    6.00
   4   0  10   58.59    5.00
   4   0 -10   62.79    5.30
   4   0  10   56.89    4.60
   4   0  10   63.99    5.10
   4   0  10   69.99    5.30
  -4   0  10   64.19    5.20
  -4   0 -10   57.29    4.80
   5   0  10    2.90    1.90
   5   0  10   -0.10    1.80
  -5   0  10    1.70    1.60
  -5   0  10    0.50    1.50
  -5   0 -10    0.80    2.40
  -5   0  10   -0.80    1.40
  -5   0  10   -1.50    1.50
  -5   0  10    0.60    2.00
  -5   0 -10    0.30    1.80
   5   0 -10    3.40    2.20
  -6   0 -10    5.70    2.40
  -6   0  10    8.80    2.30
   6   0 -10    6.80    2.90
  -6   0  10    8.40    2.30
   6   0  10    9.40    3.00
  -6   0  10    6.50    2.40
  -6   0 -10    9.10    2.90
  -6   0  10    5.80    2.20
  -6   0  10    6.10    3.10
  -6   0 -10    6.40    2.00
  -7   0  10   26.20    3.40
   7   0 -10   24.80    3.70
  -7   0 -10   20.40    3.50
  -7   0 -10   21.80    2.70
   7   0  10   14.40    3.40
  -7   0  10   28.40    3.50
  -7   0 -10   22.60    5.10
  -8   0 -10    2.90    2.20
  -8   0 -10    0.00    1.50
  -8   0  10    2.40    1.80
  -8   0  10    0.60    1.30
   8   0  10    0.90    1.90
   8   0 -10    2.30    2.40
  -9   0  10    0.10    0.80
   9   0  10    0.10    0.80
   0   1 -10   74.29    7.40
   0  -1  10   67.39    4.60
   0  -1 -10   68.59    9.80
  -1   1  10  194.68   10.90
  -1   1  10  188.88   15.40
   1  -1  10  194.58   10.70
   1  -1  10  217.68   16.50
  -1  -1 -10  197.38   16.10
   1  -1 -10  203.28   15.60
  -1  -1  10  223.58   16.40
  -1   1 -10  205.68   17.20
  -1  -1  10  191.38   10.90
  -1   1 -10  191.88   11.00
  -2  -1 -10   48.80    9.30
  -2   1  10   39.10    3.50
   2  -1  10   40.30    3.00
  -2  -1  10   41.80    3.60
   2   1  10   39.90    3.80
   2   1  10   58.49    9.30
   3  -1  10   91.49    9.80
   3  -1  10  118.49    7.50
   3  -1  10  119.29    6.60
  -3   1  10  129.49    7.50
  -3   1  10  123.89    9.60
   3   1  10  127.69    7.90
  -3  -1  10  124.89    8.00
   3   1  10  134.49    8.00
   3   1  10  133.39    9.40
  -3   1 -10  119.19    7.60
  -3  -1  10  126.09    7.60
  -3  -1  10  112.09    7.80
   3  -1 -10  110.69    7.80
  -3  -1  10  117.79    7.30
   4   1 -10   37.30    4.60
  -4   1  10   42.70    3.80
  -4   1  10   42.20    4.00
   4  -1  10   41.50    4.10
  -4   1  10   43.00    4.10
   4  -1  10   40.70    3.80
   4  -1  10   41.50    3.70
  -4  -1 -10   40.20    3.60
  -4   1  10   38.50    4.20
   4  -1  10   44.50    3.90
  -4   1  10   40.30    5.00
  -4  -1  10   36.80    3.60
  -4   1 -10   39.10    3.80
   4   1  10   46.90    4.20
  -4  -1  10   40.90    5.10
   4   1  10   41.30    4.00
   4   1  10   40.70    4.70
   4   1  10   34.60    3.30
  -4  -1  10   40.00    3.90
  -4  -1  10   35.80    4.00
   4  -1 -10   35.50    4.40
   4   1  10   40.80    4.80
  -4  -1  10   36.70    4.00
  -5   1  10  246.18   13.20
  -5  -1 -10  233.58   14.00
  -5   1  10  217.38   14.20
   5  -1  10  258.37   13.30
   5  -1  10  225.98   13.00
   5   1 -10  224.78   13.60
  -5   1  10  237.58   13.20
  -5   1  10  237.98   14.50
   5  -1  10  170.98   16.10
  -5   1 -10  220.88   14.00
  -5  -1  10  233.28   13.20
  -5  -1  10  237.88   14.60
   5  -1 -10  236.68   14.60
  -5  -1  10  236.48   13.50
  -5   1 -10  225.58   13.90
   5   1  10  234.78   13.10
  -5  -1  10  232.58   13.20
  -5  -1  10  215.58   13.40
   5   1  10  228.08   14.20
   5   1  10  211.08   12.50
  -6   1  10   27.00    4.70
  -6   1  10   16.50    3.00
   6  -1  10   20.60    2.80
  -6  -1 -10   16.70    2.50
  -6   1  10   18.00    3.40
   6   1 -10   21.00    3.70
  -6  -1 -10   18.70    3.50
  -6  -1 -10   25.70    4.00
  -6   1  10   20.40    3.10
   6  -1  10   26.80    4.20
  -6   1 -10   19.80    3.70
  -6  -1  10   24.30    3.60
  -6  -1  10   23.60    3.50
  -6  -1  10   18.20    3.20
  -6  -1  10   15.00    3.40
  -6  -1  10   14.40    2.60
  -6   1 -10   29.00    4.60
   6  -1 -10   22.20    3.80
  -6   1 -10   24.00    3.10
   6   1  10   16.70    3.60
  -7   1  10    3.10    2.00
  -7   1  10    3.80    1.90
   7  -1  10    2.50    2.40
  -7   1  10    4.60    2.60
   7   1 -10    3.50    2.60
  -7  -1 -10    3.10    2.30
  -7  -1 -10    2.90    2.90
  -7  -1  10    1.30    1.90
  -7  -1  10    4.50    2.50
  -7   1 -10    4.80    1.70
   7   1  10    5.10    2.50
  -7   1 -10    6.50    2.90
   7  -1 -10    3.20    2.40
  -7  -1  10    5.20    1.80
  -7   1 -10    3.70    2.30
  -8  -1 -10    3.10    2.40
  -8   1  10    0.70    1.70
  -8  -1 -10   -0.50    1.50
   8  -1  10    0.50    1.80
   8   1 -10   -1.00    2.00
  -8   1 -10    0.90    1.90
  -8  -1  10    0.60    1.00
  -8  -1  10    0.90    1.20
  -8   1 -10   -1.30    1.40
   8   1  10    1.50    1.50
   9   1 -10    1.40    1.20
  -9   1  10    1.30    0.70
  -9  -1 -10    0.80    0.90
   9  -1  10   -0.90    0.70
  -9   1  10    0.90    0.90
   9   1  10    1.20    0.80
  -9  -1  10    2.00    0.80
   0   2  10  157.78   14.10
   0  -2 -10  155.68   14.90
   0  -2  10  145.49    8.50
  -1  -2 -10  176.68   18.00
  -1   2  10  157.08   14.70
   1  -2  10  163.58    9.30
   1   2  10  164.98   10.10
   1   2  10  205.18   18.60
  -1   2 -10  163.78    9.30
   1  -2 -10  179.98   15.20
  -1  -2  10  171.88    9.60
  -2  -2 -10   76.49    5.40
  -2   2  10   78.49    5.20
   2  -2  10   75.39    4.60
  -2  -2 -10   71.09   12.90
  -2   2  10   77.49    5.50
  -2  -2  10   77.29    5.30
  -2  -2  10   72.69    5.80
   2   2  10   72.19   11.50
   2   2  10   81.09    5.80
  -2  -2  10   81.29    5.70
  -2  -2  10   79.49    5.60
  -2  -2  10   71.39   10.30
   3  -2  10   72.09    5.40
   3  -2  10   77.89    5.60
  -3   2  10   81.29    5.50
   3  -2  10   61.79    8.00
  -3   2  10   79.89    6.40
  -3   2  10   84.29    5.80
  -3  -2 -10   67.89    5.10
   3  -2  10   80.19    6.00
   3   2  10   82.19    6.80
  -3  -2  10   87.79    5.70
   3   2  10   70.99    5.50
  -3  -2  10   86.59    6.10
  -3  -2  10   78.29    6.00
   3   2  10   73.69    5.30
  -3  -2  10   77.09    5.10
   3  -2 -10   75.89    5.80
   3   2  10   87.49    6.90
  -4   2  10    3.40    2.20
  -4   2  10    1.50    1.60
   4  -2  10    1.60    1.30
   4  -2  10    1.00    1.50
   4  -2  10    0.00    1.50
   4   2 -10    1.60    3.40
   4  -2  10    1.40    1.70
  -4  -2 -10    3.60    1.50
  -4   2  10   -3.00    1.70
  -4  -2  10    0.80    1.40
  -4  -2  10    2.60    1.80
   4   2  10    1.60    1.70
   4   2  10    3.70    1.70
  -4  -2  10    4.40    1.40
  -4   2 -10    2.00    1.50
   4   2  10    3.80    1.80
   4  -2 -10    1.30    1.90
  -4  -2  10    2.50    1.70
  -5  -2 -10   15.60    2.30
  -5   2  10   12.50    3.70
   5  -2  10   12.20    2.40
  -5   2  10    9.10    2.30
  -5   2  10   14.50    2.70
   5   2 -10   13.50    2.80
   5  -2  10   17.00    3.10
  -5  -2 -10   12.70    3.00
  -5   2  10   17.60    3.20
   5  -2  10   13.60    2.90
  -5   2 -10   11.10    2.40
   5   2  10   13.60    3.00
  -5  -2  10   13.30    2.90
   5   2  10   12.90    6.10
  -5  -2  10   10.30    2.90
   5  -2 -10   12.20    2.80
  -5  -2  10   10.20    2.90
   5   2  10   12.20    2.90
  -5  -2  10   15.40    2.90
   6   2 -10   10.20    3.00
   6  -2  10    3.70    2.30
   6  -2  10    4.00    1.80
  -6  -2 -10    5.50    2.60
  -6  -2 -10    6.30    1.50
  -6   2  10    9.30    3.30
  -6   2  10   10.60    2.70
  -6   2 -10    6.70    2.20
   6  -2 -10    6.00    2.70
  -6  -2  10   10.60    2.80
   6   2  10    8.50    2.80
   6   2  10    9.50    2.10
  -6  -2  10   10.60    2.60
  -6   2 -10    2.70    2.80
  -6  -2  10    9.80    2.30
  -6   2 -10    6.10    2.60
  -7   2  10    2.40    2.70
   7  -2  10    0.50    2.00
  -7  -2 -10   -1.50    1.90
  -7  -2 -10    0.10    2.10
   7   2 -10    3.40    2.50
  -7   2  10    1.90    1.90
  -7   2 -10    0.20    1.50
  -7  -2  10    0.80    1.30
  -7   2 -10    2.80    2.10
  -7  -2  10    2.30    1.90
  -7   2 -10    0.60    2.20
   7  -2 -10    2.30    2.10
  -7  -2  10    4.80    2.00
   7   2  10    2.10    2.30
  -8  -2 -10    3.20    2.20
   8  -2  10    2.60    1.50
   8   2 -10   -0.80    1.80
  -8   2  10    0.50    1.30
   8  -2  10    0.60    1.50
  -8  -2 -10    1.10    1.50
  -8  -2  10    1.70    1.60
  -8   2 -10    0.90    1.80
  -8   2 -10    0.70    1.40
   8   2  10   -1.20    1.30
  -8  -2  10    0.20    1.40
   8  -2 -10   -2.00    1.20
   0  -3  10  320.57   15.90
   0   3  10  307.27   23.50
   0   3 -10  245.78   15.80
   0  -3 -10  349.57   25.30
  -1   3  10   28.10    7.50
   1  -3  10   32.60    3.60
  -1  -3 -10   30.70    3.20
  -1  -3 -10   40.30    9.20
   1  -3  10   30.30    2.70
   1  -3  10   32.10    3.00
   1  -3 -10   29.90    3.40
   1   3  10   33.80    4.00
   1  -3 -10   35.20    8.30
  -1  -3  10   38.90    4.20
   1   3  10   41.10    4.50
  -1  -3  10   33.60    3.70
   1   3  10   55.09   10.50
  -1  -3  10   32.20    3.10
  -2   3  10   19.30    2.90
   2  -3  10   25.70    4.00
   2  -3  10   18.40    2.50
  -2  -3 -10   -1.70    8.40
   2  -3  10   19.00    1.80
  -2  -3 -10   22.10    3.50
  -2   3  10   12.10    2.00
  -2  -3  10   17.20    2.60
   2   3  10   25.70    8.30
   2   3  10   17.20    2.60
   2   3  10   17.70    3.00
   2   3  10   23.30    3.40
  -2  -3  10   10.50    2.10
   3  -3  10   88.79    6.00
  -3   3  10   86.79    6.20
   3  -3  10   85.29    6.40
   3  -3  10   82.69    5.70
  -3   3  10   82.49    5.70
   3  -3  10   81.49    6.20
  -3  -3 -10   88.59    6.30
   3   3  10   85.69    6.00
  -3  -3  10   77.69    5.90
   3  -3 -10   80.69    6.10
  -3  -3  10   83.09    6.30
   3   3  10   85.69    6.70
  -3  -3  10   85.69    7.90
   3   3  10   94.29    6.90
  -3  -3  10   77.79    6.30
  -3   3 -10   73.59    5.70
  -4  -3 -10  156.68    9.10
   4  -3  10  158.08    9.90
  -4   3  10  168.58    9.50
   4  -3  10  157.28   10.00
   4   3 -10  164.08   11.30
   4  -3  10  159.98   10.40
   4  -3  10  150.88   12.00
  -4   3  10  160.58   10.80
  -4   3  10  161.88   12.10
  -4  -3  10  166.78   10.00
   4   3  10  160.68    9.60
  -4  -3  10  151.68    8.90
   4   3  10  151.88   10.00
   4  -3 -10  149.09   11.60
   4   3  10  167.88   11.30
  -4   3 -10  165.98    9.60
  -4  -3  10  163.08   10.90
   5   3 -10    3.30    2.80
  -5   3  10    2.60    2.00
   5  -3  10    6.80    2.40
  -5   3  10    2.40    2.60
   5  -3  10    4.70    1.90
  -5   3  10    4.50    2.50
  -5  -3 -10    1.00    3.60
  -5  -3 -10    2.70    1.40
   5  -3  10    5.20    2.40
  -5  -3  10    3.00    1.40
  -5   3 -10    5.70    2.00
  -5  -3  10    7.20    2.40
   5   3  10    2.30    2.00
   5  -3 -10    5.90    2.50
  -5   3 -10    6.20    2.60
  -5  -3  10    5.40    2.20
  -5  -3  10    5.10    2.20
   5   3  10    5.00    2.00
   6   3 -10   13.20    3.20
  -6   3  10   18.10    4.10
  -6  -3 -10   19.40    3.50
  -6   3  10    9.90    3.10
   6  -3  10   20.20    3.70
   6  -3  10   18.80    3.10
   6   3  10   16.00    3.50
  -6   3 -10   20.00    3.70
  -6  -3  10   20.30    4.10
   6  -3 -10   15.50    3.50
   6   3  10   16.60    2.70
  -6   3 -10   20.60    3.90
  -6  -3  10   23.70    3.40
  -6  -3  10   17.80    2.30
  -6  -3  10   22.00    3.70
   7  -3  10   44.50    4.50
  -7  -3 -10   30.00    4.70
  -7  -3 -10   42.00    4.50
   7   3 -10   43.90    4.60
  -7   3  10   37.40    4.20
   7  -3  10   34.90    4.00
  -7   3 -10   38.30    3.80
   7  -3 -10   37.90    3.90
  -7   3 -10   40.80    5.20
  -7  -3  10   44.60    4.60
  -7  -3  10   39.40    3.80
  -7  -3  10   48.70    4.20
  -7  -3  10   28.40    3.20
   7   3  10   34.20    4.40
  -8  -3 -10   11.40    2.20
   8   3 -10    8.30    2.20
   8  -3  10    6.10    1.40
  -8   3  10    6.00    1.70
   8  -3  10    5.80    1.60
  -8  -3  10    8.30    1.50
  -8  -3  10   12.50    2.20
   8   3  10    3.90    1.50
  -8   3 -10   13.80    3.00
  -8   3 -10   11.50    1.50
   0   4  10  238.38   13.90
   0  -4  10  259.17   13.40
   0  -4  10  246.48   14.20
   0   4  10  212.28   26.30
   0  -4 -10  254.87   26.20
   0  -4  10  238.48   13.90
   0  -4  10  261.57   14.20
   0  -4  10  255.97   13.90
   0   4 -10  239.38   13.90
   0  -4  10  246.18   14.90
   1   4 -10   58.69    4.50
  -1   4  10   55.39    4.40
  -1  -4 -10   56.79    5.00
  -1  -4 -10   56.49    4.60
   1  -4  10   53.99    3.90
   1  -4  10   58.49    5.10
  -1   4  10   58.19   12.20
   1  -4  10   55.69    4.90
   1  -4  10   52.49    4.60
   1  -4  10   55.49    4.40
  -1  -4  10   40.60    6.30
   1  -4 -10   73.49   14.00
   1   4  10   57.59    5.10
  -1  -4  10   63.19    5.90
  -1  -4  10   55.99    4.60
   1  -4 -10   60.29    4.40
  -1  -4  10   57.89    4.50
   1   4  10   57.89    4.70
  -1  -4  10   52.59    4.70
  -2  -4 -10    9.60    2.50
  -2  -4 -10    6.10    1.50
   2  -4  10    7.40    2.40
  -2   4  10   10.20    2.20
   2  -4  10    5.40    1.70
   2  -4  10    4.30    1.60
   2   4 -10    6.60    2.10
  -2  -4  10    9.20    2.30
  -2  -4  10    3.80    1.60
   2   4  10    4.50    1.80
  -2  -4  10    0.50    1.80
  -2  -4  10    6.80    2.30
  -2  -4  10    6.70    1.90
   2  -4 -10    4.00    1.70
   2   4  10    1.70    1.60
   3   4 -10   26.80    4.10
  -3   4  10   18.10    3.00
   3  -4  10   18.30    2.90
  -3   4  10   26.10    3.20
  -3  -4 -10   17.10    2.40
   3  -4  10   18.30    2.70
   3  -4  10   32.50    4.20
   3  -4  10   22.00    2.90
  -3   4 -10   25.30    3.40
  -3  -4  10   30.90    3.50
   3   4  10   26.20    3.30
   3  -4 -10   21.40    3.10
  -3  -4  10   22.10    3.40
   3   4  10   26.70    4.40
   3   4  10   28.40    3.40
  -3  -4  10   30.80    3.90
  -3  -4  10   14.30    2.60
   4  -4  10    3.60    3.50
  -4   4  10    2.70    2.10
   4  -4  10    4.10    2.30
   4  -4  10    2.90    2.00
   4  -4  10    1.60    1.50
  -4   4  10    0.90    1.60
  -4  -4 -10    2.90    1.40
  -4   4 -10    2.00    1.70
  -4  -4  10    3.20    1.90
  -4  -4  10    5.00    3.00
  -4  -4  10    2.50    3.30
   4   4  10    0.40    1.80
  -4  -4  10    2.80    1.90
   5   4 -10   25.20    3.60
   5  -4  10   24.50    3.60
   5  -4  10   32.00    4.00
  -5   4  10   23.70    3.70
   5  -4  10   23.30    3.20
  -5   4  10   24.20    4.10
  -5  -4  10   23.10    3.80
  -5   4 -10   28.30    3.90
   5  -4 -10   30.30    4.10
  -5  -4  10   33.70    4.50
  -5   4 -10   30.30    4.40
  -5  -4  10   19.50    3.20
   5   4  10   28.20    4.00
   5   4  10   27.00    3.90
  -5  -4  10   23.80    3.40
   6   4 -10   18.40    3.50
   6  -4  10   16.30    4.00
  -6  -4  10   26.10    3.20
   6   4  10   20.30    3.80
  -6  -4  10   16.10    3.70
  -6  -4  10   30.70    4.70
   6   4  10   22.10    3.10
  -6   4 -10   23.30    3.90
   6  -4 -10   29.10    3.50
  -7  -4 -10    1.20    1.70
   7   4 -10    2.50    2.00
  -7   4  10    2.70    2.00
   7  -4  10    2.90    1.70
   7  -4  10    0.20    1.50
  -7  -4  10    6.00    2.20
  -7   4 -10    2.60    1.50
   7   4  10   -0.10    1.80
  -7  -4  10    1.10    1.90
  -7  -4  10    0.70    1.60
  -7   4 -10    2.50    2.10
   8   4 -10    2.90    1.70
  -8   4  10    0.70    1.00
   8  -4  10    0.90    1.10
  -8  -4 -10    1.80    1.30
   8   4  10   -0.30    1.10
  -8  -4  10    0.40    2.30
  -8   4 -10    2.60    0.90
  -8   4 -10    1.70    1.60
  -8  -4  10    2.40    1.60
   0  -5  10   12.80    4.20
   0  -5  10   13.80    2.70
   0  -5  10   14.10    2.90
   0   5  10   15.00    2.80
   0  -5  10   12.00    2.40
   0  -5 -10   11.30    1.90
   0  -5 -10   15.70    2.70
   0  -5  10   15.00    2.70
   0  -5  10   10.50    2.10
   1  -5  10   39.60    4.40
   1  -5  10   46.30    4.30
  -1  -5 -10   41.30    3.30
   1   5 -10   38.30    5.10
   1  -5  10   42.20    4.00
  -1   5  10   31.40    4.10
   1  -5  10   36.00    3.60
   1  -5  10   40.50    4.30
  -1  -5 -10   33.50    3.90
   1  -5  10   37.20    3.20
  -1  -5  10   35.00    3.90
  -1  -5  10   40.40    4.20
   1   5  10   43.70    4.00
  -1  -5  10   38.20    4.30
   1   5  10   42.80    4.70
  -1  -5  10   45.90    4.30
  -1  -5  10   36.90    3.90
  -1  -5  10   46.40    4.20
  -2   5  10    6.10    1.90
   2  -5  10   13.10    3.10
   2   5 -10    8.70    2.90
   2  -5  10    6.30    2.00
  -2  -5 -10   10.30    2.70
   2  -5  10    8.30    2.80
  -2  -5 -10    7.10    1.50
   2  -5  10    4.00    1.80
  -2  -5  10    4.90    2.00
  -2  -5  10    4.60    2.50
   2   5  10    2.90    1.90
   2   5  10    8.30    2.50
   2  -5 -10    5.00    1.70
  -2  -5  10    4.30    1.70
  -2  -5  10    8.20    2.10
  -2  -5  10    7.30    2.60
  -2  -5  10    7.10    2.20
   3  -5  10   16.10    3.00
   3  -5  10   25.00    2.80
   3  -5  10   21.60    3.90
   3  -5  10   27.80    4.20
  -3   5  10   24.50    3.10
  -3   5  10   27.30    3.80
   3  -5  10   20.30    3.30
   3   5 -10   20.70    4.30
   3   5  10   30.50    3.70
  -3  -5  10   18.80    3.10
  -3  -5  10   28.10    3.50
  -3  -5  10   25.90    3.70
  -3  -5  10   28.30    4.00
  -3   5 -10   29.20    3.70
   3   5  10   25.20    3.50
  -3  -5  10   24.50    4.60
   3  -5 -10   26.50    3.20
   4  -5  10   97.29    7.40
  -4   5  10   99.29    6.40
   4  -5  10   88.69    6.30
   4  -5  10   95.79    7.40
   4  -5  10   95.39    8.00
   4  -5  10   87.29    6.40
  -4   5  10   93.99    7.30
  -4   5 -10   90.19    6.60
  -4  -5  10   88.39    6.60
  -4  -5  10   75.29    6.60
  -4   5 -10   98.99    7.90
   4  -5 -10   87.89    6.20
  -4  -5  10   95.49    7.40
  -4  -5  10   95.09    7.60
   4   5  10   96.89    7.10
   4   5  10   98.19    6.70
   5  -5  10    2.40    2.00
  -5   5  10    2.30    2.50
   5   5 -10   -4.80    2.70
   5  -5  10    2.90    2.10
   5  -5  10    0.60    2.70
   5  -5  10   -0.70    3.50
  -5  -5  10    3.50    2.30
   5   5  10   -0.30    2.90
   5   5  10    2.50    2.50
  -5   5 -10    1.70    2.60
  -5  -5  10    0.40    1.70
  -5  -5  10    2.20    2.10
  -5   5 -10   -0.90    2.10
   6  -5  10   34.30    3.90
   6   5 -10   31.10    4.30
   6  -5  10   32.80    3.70
  -6   5  10   35.80    4.50
   6   5  10   28.30    4.10
  -6  -5  10   40.40    3.80
   6   5  10   32.00    3.90
  -6   5 -10   25.00    4.30
  -6  -5  10   34.20    4.00
  -6  -5  10   35.30    4.70
   7  -5  10   -0.50    1.30
   7  -5  10    0.80    1.40
   7   5 -10    0.60    1.60
  -7   5  10   -0.60    1.40
  -7  -5 -10   -0.60    1.40
   7   5  10    1.50    1.40
  -7   5 -10    2.20    2.10
  -7   5 -10    0.30    1.60
  -7  -5  10    0.20    1.40
  -7  -5  10    1.20    1.50
  -7  -5  10    0.60    1.90
   8   5 -10   -0.80    1.20
  -8   5  10    0.60    0.80
  -8  -5 -10    0.10    0.90
  -8  -5  10    1.00    1.40
   0  -6 -10   83.19    6.10
   0  -6  10   81.09    5.70
   0  -6  10   70.09    5.90
   0  -6  10   78.09    6.10
   0  -6  10   66.99    8.10
   0   6  10   77.19    6.00
   0  -6  10   82.69    5.50
   1  -6  10   62.09    5.30
  -1  -6 -10   52.89    5.30
  -1   6  10   59.39    5.20
   1  -6  10   67.89    5.70
   1  -6  10   63.29    5.80
   1  -6  10   56.79    5.00
   1   6  10   60.49    5.40
  -1  -6  10   59.19    6.50
  -1  -6  10   62.19    4.90
  -1  -6  10   54.69    5.30
  -1  -6  10   62.99    7.10
  -1  -6  10   62.59    5.40
  -1  -6  10   63.29    5.20
   1   6  10   63.99    6.60
  -2   6  10   22.20    3.20
  -2  -6 -10   20.60    3.70
   2  -6  10   19.60    4.30
   2  -6  10   23.70    4.80
   2  -6  10   15.70    4.70
   2  -6  10   22.50    5.40
  -2  -6  10   18.50    2.80
   2   6  10   17.90    3.40
  -2  -6  10   25.10    3.70
  -2  -6  10   21.80    3.10
  -2  -6  10   15.40    3.40
  -2  -6  10   24.00    3.70
  -2  -6  10   21.50    3.90
   3  -6  10    5.60    2.10
   3  -6  10    9.00    3.10
  -3  -6 -10    8.10    3.00
  -3   6  10    7.40    2.50
   3  -6  10    7.00    3.10
   3  -6  10    7.40    3.60
  -3   6  10    7.70    2.30
  -3  -6  10    4.00    2.10
  -3  -6  10   10.10    2.90
  -3   6 -10   11.90    4.30
  -3  -6  10    5.80    2.10
  -3   6 -10   12.60    3.60
  -3  -6  10    0.70    4.70
  -3  -6  10    9.40    2.30
   3   6  10    8.10    2.40
   3   6  10    4.80    2.10
  -4   6  10    4.40    2.30
   4  -6  10    7.00    2.80
   4  -6  10    3.10    3.90
   4  -6  10    5.30    2.80
   4   6  10   10.00    2.50
  -4  -6  10   10.10    4.10
   4   6  10    7.00    2.20
  -4  -6  10   13.90    3.20
  -4  -6  10    5.40    2.10
  -4   6 -10    3.80    2.20
  -4  -6  10    7.80    2.30
  -4   6 -10    7.60    2.70
   5  -6  10    2.90    1.60
   5  -6  10    3.40    2.50
   5  -6  10    3.10    2.40
  -5   6  10    1.30    1.90
   5  -6  10    1.60    2.60
  -5  -6  10    3.60    2.30
  -5   6 -10    4.30    2.50
   5   6  10    7.10    2.30
  -5  -6  10    4.50    2.30
   5   6  10    2.00    1.90
  -5  -6  10    4.30    1.80
  -5   6 -10    0.90    1.30
  -6   6  10    3.00    1.90
   6  -6  10    2.10    1.90
   6   6 -10    1.30    2.10
   6   6  10    4.70    1.90
   6   6  10    1.70    1.80
  -6  -6  10    6.10    1.80
  -6  -6  10    3.00    1.80
  -6  -6  10   -0.40    1.70
  -6   6 -10    1.90    1.20
  -6   6 -10    2.10    2.20
   7  -6  10    3.30    1.20
  -7   6  10    1.00    1.20
   7   6 -10    3.00    1.80
  -7  -6 -10    2.00    1.20
  -7  -6 -10    2.60    1.30
  -7   6 -10    4.00    1.50
  -7   6 -10    6.20    2.40
  -7  -6  10    2.00    1.50
  -7  -6  10    1.40    1.50
   0  -7 -10   86.19    6.60
   0  -7  10   84.99    7.30
   0  -7  10   88.59    6.30
   0  -7  10   60.39    8.00
   0  -7  10   84.49    7.70
   0  -7  10   89.09    6.40
   1  -7  10   23.10    4.30
   1  -7  10   26.10    3.70
  -1  -7 -10   33.70    4.20
   1  -7  10   26.30    3.60
   1  -7  10   24.70    4.40
  -1   7  10   33.10    3.80
   1  -7 -10   27.60    5.00
  -1  -7  10   22.70    3.20
  -1  -7  10   26.30    3.90
   1   7  10   33.70    3.80
  -1  -7  10   18.10    3.80
  -1  -7  10   24.20    3.60
  -1  -7  10   21.80    4.20
  -2  -7 -10    1.50    2.50
   2  -7  10    1.70    2.60
  -2   7  10    3.00    2.10
   2  -7  10    1.80    2.50
   2  -7  10   -4.00    1.50
   2  -7  10    3.00    3.00
  -2  -7  10    0.70    1.80
  -2  -7  10    1.70    2.10
   2   7  10    1.90    2.30
  -2  -7  10    0.60    1.80
  -2  -7  10    1.50    3.10
  -2  -7  10   -1.10    3.10
  -3   7  10    2.80    2.30
   3  -7  10    0.90    2.50
   3  -7  10    0.60    2.70
  -3   7  10   -2.60    2.40
   3  -7  10   -1.90    4.20
  -3   7 -10   -2.30    2.50
  -3  -7  10   -2.30    1.70
  -3  -7  10    0.50    6.40
  -3  -7  10   -2.10    2.40
  -3   7 -10    1.80    2.00
  -3  -7  10    3.00    2.00
   3   7  10    4.50    2.10
  -3  -7  10    0.80    2.70
   3   7  10    3.50    1.80
  -4   7  10   26.10    3.70
   4  -7  10   28.60    6.90
   4  -7  10   29.90    6.40
   4  -7  10   26.90    5.00
  -4  -7  10   35.90    3.60
  -4  -7  10   36.40    4.50
   4   7  10   23.50    3.60
  -5   7  10   -1.50    1.40
   5  -7  10   -0.40    1.90
   5  -7  10    2.40    2.10
   5  -7  10   -2.60    2.50
  -5  -7  10    4.40    2.20
  -5   7 -10    3.80    2.40
  -5  -7  10    0.70    1.80
   5   7  10   -0.40    1.70
  -5   7 -10    0.40    1.30
   6  -7  10    3.40    1.70
   6   7 -10    1.80    1.80
  -6   7  10    2.10    1.40
   6   7  10    6.80    1.70
  -6   7 -10    1.90    1.00
  -6  -7  10    7.00    2.10
  -6  -7  10    2.40    1.80
  -7   7  10    0.80    0.90
   7   7 -10    3.40    1.50
  -7  -7 -10    0.00    0.70
  -7  -7 -10    0.10    0.90
  -7  -7  10    1.40    1.10
  -7  -7  10   -0.30    1.10
  -7   7 -10    1.80    1.20
   0  -8 -10   15.00    3.10
   0  -8  10   12.00    3.40
   0   8  10   17.00    3.40
   0  -8  10   15.00    3.10
   0  -8  10   -0.60    3.80
   0  -8  10   17.10    4.60
   1  -8  10    1.80    2.90
   1  -8  10    7.30    5.00
   1  -8  10    2.50    2.80
  -1  -8 -10    5.40    3.20
  -1   8  10    7.20    3.20
  -1  -8  10    2.90    3.20
  -1  -8  10    2.80    2.70
  -1  -8  10    4.10    2.20
  -1  -8  10    3.90    4.10
   1  -8 -10   -1.60    2.40
  -2  -8 -10    5.00    2.50
   2  -8  10   10.10    3.20
   2  -8  10   13.30    4.00
   2  -8  10    8.90    4.50
  -2   8  10    7.10    3.90
  -2  -8  10   16.10    8.90
  -2  -8  10    8.80    3.20
  -2  -8  10    7.70    2.40
  -2  -8  10    7.70    4.50
  -3   8  10    3.00    2.20
   3  -8  10    4.50    3.20
   3  -8  10    1.00    2.40
   3  -8  10   -1.00    4.70
  -3  -8  10   -0.50    7.50
  -3   8 -10    0.30    1.50
   3   8  10    4.00    2.10
  -3  -8  10    7.70    2.50
  -3  -8  10    3.50    2.00
   4  -8  10   10.00    2.90
   4  -8  10    4.70    3.50
   4  -8  10    5.10    3.30
  -4  -8  10   -1.50    2.30
  -4   8 -10    6.00    1.50
  -4  -8  10    4.20    1.90
   4   8  10    9.10    2.20
  -4  -8  10    9.90    2.30
   5  -8  10   -3.60    3.70
   5  -8  10   -0.80    1.40
  -5   8  10   -1.50    1.10
  -5   8 -10   -0.30    1.40
   5   8  10   -0.40    1.80
  -5  -8  10   -0.80    1.60
  -5  -8  10    1.40    1.70
  -6  -8 -10    1.60    1.10
   6  -8  10    1.70    1.30
  -6  -8 -10    3.80    1.30
  -6   8  10    3.40    1.40
   6   8  10    2.90    1.00
  -6   8 -10    3.20    1.30
  -6  -8  10    3.40    1.40
  -6  -8  10    2.70    1.40
   0  -9  10    4.60    3.10
   0  -9  10    0.40    1.70
   0  -9 -10    1.60    1.70
   1  -9  10    0.30    4.60
  -1  -9 -10    0.20    1.70
   1  -9  10    1.70    4.20
   1  -9  10   -0.10    2.70
  -1  -9  10   -1.90    1.80
  -1  -9  10    4.40    6.40
  -1  -9  10   -5.10    3.50
   2  -9  10    6.50    2.80
   2  -9  10    2.40    3.80
   2  -9  10    5.40    4.70
  -2  -9  10    3.90    8.70
  -2  -9  10    5.50    6.60
  -2  -9  10    4.40    2.00
   3  -9  10   -1.40    3.40
  -3   9  10    0.50    2.40
   3  -9  10    0.40    3.60
   3  -9  10   -0.30    2.00
  -3  -9  10   -1.40    1.30
  -3  -9  10    3.10    8.90
  -3  -9  10   -0.90    1.10
   3   9  10    2.50    1.70
  -3   9 -10   -0.80    1.50
   4  -9  10    4.20    2.10
  -4   9  10    4.50    2.00
   4  -9  10    0.40    4.20
  -4  -9  10    3.80    1.50
  -4  -9  10    2.00    1.70
  -4   9 -10    3.50    1.50
   4   9  10    6.00    2.10
  -5  -9 -10    0.30    1.10
   5  -9  10    0.20    1.30
  -5  -9 -10    2.70    1.00
   5  -9  10    0.20    3.40
  -5  -9  10    0.30    1.10
   5   9  10    0.40    1.20
  -5   9 -10    0.30    1.30
   0 -10  10    3.90    3.70
   0 -10  10    4.30    7.90
   1 -10  10    3.70    6.30
   1 -10  10    8.40    3.20
  -1 -10  10    5.20    8.90
  -1 -10  10    6.50    5.40
   2 -10  10    0.90    7.00
   2 -10  10    3.70    3.00
  -2 -10  10    0.90    1.90
  -2 -10  10    3.60    6.70
   2  10  10    4.60    2.20
  -2 -10  10   -2.60    7.80
   3 -10  10    4.40    2.10
   3 -10  10    2.20    5.00
  -3 -10 -10    1.70    1.20
  -3 -10  10    3.80    1.30
   3  10  10    5.40    1.50
  -3 -10  10    2.40    3.40
  -4 -10 -10    2.10    1.10
   4 -10  10    1.90    1.60
   4 -10  10    4.80    4.60
  -4 -10  10    1.90    1.00
   0 -11  10   -2.20    4.50
   0 -11  10   -3.50    6.40
   1 -11  10    4.50    3.40
   1 -11  10    6.20    6.90
   1  11  10    0.70    1.10
  -1 -11  10    0.80    4.50
  -1 -11  10    0.30    4.90
   2 -11  10    2.50    5.40
   2 -11  10    3.50    3.20
  -2 -11  10    1.10    3.10
   2  11  10    1.60    1.20
   0   0  11    0.30    1.00
   1   0  11  178.78    9.90
  -1   0  11  178.98   10.10
  -2   0  11   46.10    3.70
   2   0  11   43.10    3.40
   2   0  11   47.70    4.20
   2   0  11   44.20    3.70
   3   0  11  120.89    7.70
  -3   0  11  122.89    7.40
  -3   0  11  122.69    7.30
  -3   0  11  102.59    9.20
   3   0  11  111.99    7.10
   3   0  11  108.09    7.20
  -3   0 -11  107.39    7.10
   3   0  11  112.59    6.60
  -3   0  11  108.99    7.40
  -4   0  11   74.59    5.50
  -4   0  11   67.39    5.60
  -4   0  11   72.19    5.50
   4   0  11   71.79    5.60
  -4   0 -11   74.29    5.40
   4   0  11   73.39    5.70
   4   0  11   72.19    5.20
  -4   0  11   74.39    5.70
   4   0 -11   71.49    5.80
  -5   0  11  195.38   14.00
  -5   0 -11  204.18   11.50
   5   0  11  203.48   12.20
  -5   0  11  206.38   11.80
  -5   0  11  209.88   12.00
   5   0 -11  196.18   12.20
   5   0  11  190.88   11.90
  -5   0  11  163.28   13.80
   5   0  11  194.88   11.40
  -5   0  11  209.98   11.90
   6   0  11   25.60    4.00
  -6   0  11   21.20    3.30
  -6   0  11   21.70    3.20
  -6   0 -11   14.60    3.40
  -6   0  11   18.90    3.30
  -6   0 -11   17.70    2.60
  -6   0 -11   20.30    3.70
  -6   0  11   19.60    3.00
   6   0 -11   21.80    3.80
   7   0 -11    4.60    2.60
   7   0  11    5.20    2.40
  -7   0 -11    0.80    2.00
  -7   0  11    3.30    1.80
  -7   0 -11    3.10    1.50
  -7   0  11    3.10    1.80
  -8   0  11   -1.20    1.00
  -8   0 -11    1.00    2.20
   8   0  11    0.50    1.50
  -8   0 -11    0.60    1.40
  -8   0  11    2.70    1.30
   8   0 -11    2.40    1.80
   0  -1  11  131.69    7.70
   1  -1  11  108.19    6.50
  -1   1  11  105.99    6.70
  -1  -1  11  111.19    6.70
   2  -1  11    2.40    1.50
  -2   1  11    0.80    1.20
   2  -1  11    0.40    1.60
   2  -1  11    2.00    1.00
  -2  -1 -11    2.00    1.60
  -2   1  11    0.60    1.30
   2   1  11   -0.20    2.20
  -2  -1  11    3.50    1.70
  -2   1 -11    2.40    1.80
  -2  -1  11    1.50    1.50
  -2  -1  11    6.00    1.70
   2   1  11    1.70    1.20
   2   1  11    2.30    1.40
   2   1  11    2.20    1.40
  -3   1  11   93.59    6.40
   3  -1  11  101.49    6.40
   3  -1  11   97.69    6.80
  -3   1  11   95.19    6.70
  -3  -1 -11  107.99    6.40
   3  -1  11   97.29    6.50
   3  -1  11   95.19    6.40
  -3   1  11   92.09    6.50
   3  -1  11   94.89    5.80
  -3   1  11   96.59    6.70
  -3  -1  11  103.69    6.60
  -3  -1  11   97.99    6.20
   3  -1 -11   92.59    8.00
   3   1  11   94.39    6.50
   3   1  11   96.99    6.70
   3   1  11  102.89    6.90
  -3  -1  11   89.69    6.70
  -3  -1  11   97.69    7.00
  -4   1  11   61.79    5.10
  -4   1  11   55.49    6.00
   4  -1  11   59.49    4.70
   4  -1  11   58.49    5.00
   4  -1  11   52.39    4.70
  -4   1  11   56.19    4.70
   4  -1  11   57.79    4.80
  -4   1  11   57.49    5.00
  -4  -1 -11   63.59    4.70
  -4   1  11   58.69    4.90
   4   1 -11   62.19    5.60
  -4  -1  11   56.59    5.20
   4   1  11   60.79    4.50
   4   1  11   61.89    5.10
   4   1  11   58.09    5.60
   4   1  11   62.39    5.10
  -4  -1  11   61.69    4.60
   4  -1 -11   53.69    5.30
  -4   1 -11   59.69    4.70
  -4  -1  11   60.69    5.00
  -4  -1  11   62.79    5.20
  -5   1  11   40.90    4.60
   5   1 -11   48.20    5.10
  -5   1  11   51.59    6.20
  -5   1  11   54.49    4.80
   5  -1  11   42.30    4.10
   5  -1  11   36.20    4.50
  -5   1  11   48.90    4.40
  -5   1  11   44.40    4.10
  -5  -1 -11   50.19    7.90
   5  -1  11   40.20    4.50
  -5  -1 -11   44.50    4.20
  -5   1 -11   41.20    4.30
   5  -1 -11   48.50    5.30
  -5  -1  11   44.70    4.40
  -5  -1  11   42.50    4.10
   5   1  11   41.30    3.60
  -5  -1  11   46.10    4.60
  -5   1 -11   51.29    7.60
  -5  -1  11   42.30    4.70
   5   1  11   42.20    4.50
  -6   1  11   37.50    4.60
   6   1 -11   39.80    5.10
   6  -1  11   34.40    3.70
  -6   1  11   41.20    4.50
  -6   1  11   41.80    5.80
  -6  -1 -11   38.20    3.80
  -6  -1 -11   37.00    4.70
  -6  -1 -11   40.80    5.20
   6  -1  11   41.80    4.90
  -6   1  11   36.40    4.50
  -6  -1  11   42.70    4.60
  -6  -1  11   38.40    4.00
  -6   1 -11   37.20    4.10
  -6   1 -11   40.90    5.30
   6   1  11   32.10    4.70
  -6  -1  11   35.20    4.30
   6  -1 -11   36.00    5.10
  -6  -1  11   30.90    4.30
  -6   1 -11   36.20    5.70
   7   1 -11   49.00    5.50
   7  -1  11   49.20    5.20
  -7  -1 -11   58.09    5.20
  -7  -1 -11   54.09    5.60
  -7   1  11   58.09    4.90
   7   1  11   57.39    5.30
  -7   1 -11   45.30    6.20
  -7   1 -11   41.90    5.10
  -7  -1  11   58.39    5.10
   7  -1 -11   57.89    5.40
  -7   1 -11   59.79    4.30
  -7  -1  11   50.29    4.30
   8  -1  11    1.20    1.40
  -8  -1 -11   -1.20    1.20
   8   1 -11    2.20    1.90
  -8  -1 -11    0.70    1.70
  -8   1  11    0.70    1.10
  -8   1 -11    0.90    2.00
  -8  -1  11   -0.40    1.30
  -8  -1  11    4.60    1.70
  -8  -1  11    1.70    0.80
   8   1  11    0.10    1.20
  -8   1 -11    0.10    1.40
   0   2  11    6.80    6.20
   0  -2  11    3.70    1.30
   1  -2  11   64.59    4.20
   1  -2  11   60.09    4.90
  -1   2  11   64.19    4.90
  -1  -2  11   57.19    4.70
  -1  -2  11   65.19    4.60
  -1   2 -11   58.39    4.30
  -1  -2  11   66.19    5.80
  -1  -2  11   53.79    4.90
   1   2  11   67.99    4.90
  -2  -2 -11    2.50    2.20
   2  -2  11    4.30    2.00
  -2   2  11    1.60    2.20
   2  -2  11    3.00    1.30
  -2   2  11    4.90    1.70
   2  -2  11    3.90    1.30
   2  -2  11    1.60    0.90
   2   2  11    1.60    1.40
   2   2  11    2.60    1.70
  -2  -2  11    3.60    2.50
  -2  -2  11    6.00    3.10
   2   2  11    1.20    1.30
  -2  -2  11    3.10    1.50
  -2  -2  11   -2.90    3.50
   2  -2 -11    3.70    1.80
   2   2  11    4.60    1.90
  -2  -2  11    2.40    1.90
  -3   2  11  133.59    8.50
   3  -2  11  127.49    8.60
   3  -2  11  128.49    8.60
   3  -2  11  128.39    8.30
  -3  -2 -11  128.49    8.00
   3  -2  11  141.89    8.60
  -3   2  11  141.09    8.30
  -3   2  11  129.99    8.50
  -3  -2  11  129.79    8.80
   3   2  11  142.99    8.50
   3  -2 -11  129.39    8.50
   3   2  11  136.69    9.10
  -3  -2  11  113.49    9.20
   3   2  11  147.29    8.20
   3   2  11  136.79    8.50
  -3   2 -11  146.89   10.20
  -3  -2  11  135.99    8.80
   4  -2  11  144.69    9.60
   4   2 -11  134.39    9.20
   4  -2  11  140.19    9.10
   4  -2  11  147.99    8.90
  -4   2  11  140.59    8.70
  -4   2  11  141.49    9.00
  -4  -2  11  155.58    9.90
  -4  -2  11  133.59    8.30
   4   2  11  138.99    9.00
  -4  -2  11  149.19    9.10
   4   2  11  129.19    9.70
   4   2  11  146.49    8.40
  -4   2 -11  139.89    8.70
  -4  -2  11  141.79    9.40
   4  -2 -11  151.68   10.80
  -5   2  11  167.18   10.60
  -5   2  11  155.68   11.50
   5  -2  11  148.79   10.10
   5  -2  11  156.78   10.00
  -5  -2 -11  162.08    9.50
  -5  -2 -11  168.18   10.80
   5   2 -11  168.58   10.60
   5  -2  11  168.48   10.60
  -5   2  11  170.38   10.10
  -5  -2  11  173.68   10.60
  -5  -2  11  163.78    9.60
  -5  -2  11  167.78   10.70
   5   2  11  153.08    9.40
   5  -2 -11  175.78   10.70
  -5   2 -11  166.48   10.10
  -5   2 -11  164.88   11.10
   5   2  11  167.68   10.60
  -5  -2  11  166.28   10.60
   6   2 -11   47.20    5.50
   6  -2  11   41.10    4.10
  -6   2  11   45.30    5.40
  -6  -2 -11   43.70    5.20
  -6  -2 -11   36.40    3.30
   6  -2  11   41.40    6.10
  -6  -2  11   35.90    4.20
  -6  -2  11   45.60    5.70
  -6   2 -11   42.40    5.20
  -6   2 -11   36.20    5.20
  -6  -2  11   43.10    3.70
   6  -2 -11   40.50    5.90
  -6  -2  11   46.30    4.70
   6   2  11   32.20    4.70
   7   2 -11   12.70    2.90
  -7  -2 -11   12.00    2.70
  -7   2  11   16.00    2.80
  -7  -2 -11   20.20    3.20
   7  -2  11   12.70    2.80
   7   2  11   13.50    3.00
  -7   2 -11    4.00    2.50
   7  -2 -11   15.60    2.80
  -7   2 -11   12.70    2.20
  -7   2 -11   15.90    3.50
  -7  -2  11   13.70    1.90
  -7  -2  11   15.80    3.00
  -7  -2  11   12.10    2.80
   8  -2  11    1.00    1.30
   8   2 -11    6.30    2.00
  -8   2  11    3.40    1.60
   8  -2  11    3.60    1.60
  -8  -2 -11    3.80    1.70
  -8   2 -11    8.10    2.70
   8   2  11    1.80    1.50
   8  -2 -11    3.90    1.30
  -8  -2  11    5.30    1.60
  -8  -2  11    4.10    1.50
   0  -3  11   -0.60    0.90
   0  -3 -11    1.30    1.40
   0   3  11   -0.60    1.30
   0  -3  11   -1.90    1.00
   0   3  11   -0.50    1.40
   0  -3  11    1.00    1.90
   0  -3  11    2.20    1.60
   0  -3  11    0.10    1.40
   1  -3  11   36.00    3.00
   1  -3  11   38.80    3.70
  -1   3  11   33.30    3.30
  -1   3  11   34.90    3.70
  -1  -3  11   31.90    3.40
  -1  -3  11   38.50    3.80
   1   3  11   39.50    4.50
   1   3  11   38.00    4.00
   1   3  11   32.70    3.50
  -1  -3  11   31.50    3.80
  -1  -3  11   53.89    7.30
   2  -3  11   26.50    3.40
  -2   3  11   26.30    3.40
   2  -3  11   24.90    2.60
  -2   3  11   21.80    2.90
  -2  -3 -11   21.30    2.80
   2  -3  11   28.60    3.60
  -2   3  11   24.40    3.30
   2  -3  11   22.80    2.80
   2   3  11   23.40    3.00
  -2  -3  11   24.80    3.20
  -2  -3  11   32.40    3.50
   2   3  11   24.60    3.10
   2  -3 -11   23.70    3.50
  -2  -3  11   31.10    3.40
   2   3  11   23.10    3.60
  -2  -3  11   21.60    2.90
   2   3  11   24.40    2.90
   3  -3  11   33.00    3.80
   3  -3  11   33.00    4.20
  -3   3  11   34.00    3.70
   3  -3  11   35.90    3.40
  -3   3  11   38.60    4.20
  -3  -3 -11   30.80    3.90
  -3   3  11   34.10    4.10
   3  -3  11   34.80    4.00
  -3  -3  11   34.10    3.90
   3   3  11   30.20    3.70
   3   3  11   33.10    4.60
  -3   3 -11   38.70    3.80
   3   3  11   37.80    3.60
  -3  -3  11   36.40    3.90
  -3  -3  11   31.50    3.90
   3  -3 -11   35.20    4.10
  -3  -3  11   34.00    4.20
   4  -3  11   34.50    4.80
  -4  -3 -11   36.70    3.50
   4  -3  11   37.50    4.30
   4  -3  11   39.10    4.30
  -4   3  11   44.70    4.00
  -4   3  11   36.90    4.40
   4  -3  11   40.00    4.30
  -4   3 -11   38.80    4.30
   4   3  11   38.60    4.20
  -4  -3  11   42.20    4.70
  -4  -3  11   36.00    3.00
  -4  -3  11   42.80    4.40
   4   3  11   38.30    5.70
   4   3  11   34.80    3.80
   4  -3 -11   44.80    4.70
  -4  -3  11   40.80    4.60
  -4  -3  11   36.80    4.40
   5  -3  11    0.20    2.00
   5  -3  11    4.10    2.20
  -5   3  11    2.20    1.80
   5  -3  11    1.10    1.50
  -5  -3 -11    3.30    1.40
  -5   3  11    1.00    2.10
   5   3 -11    3.90    2.20
  -5  -3 -11    0.50    2.90
  -5   3 -11    1.10    2.60
  -5  -3  11    1.50    2.10
   5  -3 -11    4.60    2.50
  -5   3 -11    0.50    1.80
  -5  -3  11    0.40    2.10
  -5  -3  11    2.70    1.30
   5   3  11    3.30    2.30
  -5  -3  11    2.40    2.20
   5   3  11    4.00    2.10
   6  -3  11   41.80    4.70
  -6  -3 -11   35.60    5.00
  -6   3  11   44.00    4.80
   6  -3  11   49.40    4.40
  -6  -3  11   47.10    4.80
  -6   3 -11   42.50    4.40
   6  -3 -11   44.20    4.80
  -6  -3  11   39.40    4.20
   6   3  11   27.80    5.80
  -6  -3  11   37.20    3.00
  -6  -3  11   47.60    5.20
  -6  -3  11   45.20    5.10
  -6   3 -11   38.40    5.30
   7  -3  11   10.30    2.50
   7  -3  11    7.60    2.20
   7   3 -11    6.60    2.40
  -7   3  11    8.00    2.30
  -7  -3 -11    6.00    3.10
  -7  -3 -11    4.80    2.10
  -7   3 -11   14.10    2.20
  -7  -3  11    7.80    2.80
  -7   3 -11   17.60    3.60
  -7  -3  11   12.20    2.40
  -7  -3  11   12.20    2.80
   7  -3 -11    8.80    2.10
   7   3  11   10.00    2.50
   8  -3  11    2.90    1.20
  -8   3  11    0.10    1.10
   8   3 -11    5.70    1.90
  -8  -3 -11    0.30    1.10
   8  -3  11    1.60    1.30
  -8  -3  11    2.50    1.60
  -8   3 -11    2.60    2.10
   8   3  11    0.10    1.10
  -8  -3  11    2.50    1.20
   0  -4  11   50.19    4.40
   0  -4  11   54.49    4.80
   0  -4  11   54.19    5.00
   0  -4 -11   52.69    4.20
   0  -4  11   63.59    4.90
   0   4  11   60.89    4.80
   0   4 -11   59.19    4.10
   0  -4  11   55.89    4.30
   0  -4  11   45.20    5.90
   1  -4  11   17.70    2.30
   1  -4  11   20.70    2.70
   1   4 -11   15.20    3.10
   1  -4  11   25.80    3.70
  -1   4  11   15.80    3.90
   1  -4  11   21.50    3.50
   1  -4  11   24.30    3.20
  -1   4  11   16.10    2.80
   1  -4  11   26.10    3.10
  -1  -4  11   20.20    3.30
   1   4  11   15.70    3.40
  -1  -4  11   15.50    2.60
  -1  -4  11   16.80    2.90
  -1  -4  11   19.30    3.00
  -1  -4  11   19.40    2.70
  -1  -4  11   23.70    3.30
   1   4  11   18.80    2.90
   1  -4 -11   18.40    2.50
  -2  -4 -11   38.40    3.40
   2  -4  11   39.40    4.10
   2  -4  11   37.30    3.20
   2   4 -11   38.00    4.20
   2  -4  11   42.90    4.40
  -2   4  11   35.00    5.70
  -2   4  11   42.80    4.10
   2  -4  11   39.30    3.60
   2  -4 -11   46.40    4.10
  -2  -4  11   40.90    4.20
   2   4  11   35.30    3.80
  -2  -4  11   40.20    4.40
  -2  -4  11   41.70    4.00
  -2  -4  11   41.80    4.30
  -2  -4  11   32.30    4.30
   2   4  11   45.10    4.70
  -2  -4  11   34.70    4.60
   3  -4  11  137.69    9.30
   3  -4  11  150.98    9.70
   3   4 -11  122.79   12.10
  -3   4  11  141.49    8.50
  -3  -4 -11  124.19    7.70
  -3   4  11  134.59    9.20
   3  -4  11  131.49    8.10
   3  -4  11  128.49    8.90
  -3  -4  11  133.79    9.70
   3   4  11  139.39    8.90
  -3  -4  11  133.59    8.70
  -3  -4  11  133.89    8.70
   3   4  11  133.19    9.80
  -3   4 -11  136.69    8.40
  -3  -4  11  133.79   10.30
   4  -4  11   68.89    6.10
  -4   4  11   63.79    5.80
  -4   4  11   72.69    5.30
   4  -4  11   67.69    5.40
   4  -4  11   63.29    5.50
   4  -4  11   68.09    5.90
  -4  -4 -11   61.69    4.40
  -4  -4  11   67.19    6.20
   4   4  11   71.29    5.50
   4   4  11   67.49    5.60
  -4  -4  11   62.79    6.10
  -4   4 -11   61.69    5.70
   4  -4 -11   77.09    5.90
  -4  -4  11   65.59    5.50
   5   4 -11   59.49    6.10
   5  -4  11   54.19    5.50
  -5   4  11   65.79    6.10
   5  -4  11   63.69    5.40
   5  -4  11   54.89    5.40
  -5  -4  11   63.09    5.90
   5   4  11   62.59    5.90
  -5   4 -11   68.79    6.70
   5   4  11   60.49    5.20
   5  -4 -11   67.79    5.60
  -5  -4  11   71.99    5.60
  -5  -4  11   65.89    6.10
  -5   4 -11   65.49    5.40
   6  -4  11   36.90    3.80
   6  -4  11   24.50    3.50
   6  -4  11   39.80    4.60
  -6   4  11   29.50    4.10
   6   4 -11   31.00    4.50
   6  -4 -11   34.20    3.60
  -6   4 -11   31.70    3.90
  -6  -4  11   37.80    3.90
   6   4  11   25.20    3.30
  -6  -4  11   28.00    3.90
  -6  -4  11   31.70    4.20
  -6   4 -11   35.10    4.90
   6   4  11   22.30    3.60
   7   4 -11   -0.20    2.00
  -7  -4 -11    0.80    1.70
  -7   4  11   -0.40    1.50
   7  -4  11    1.60    1.80
   7  -4  11   -1.40    1.20
  -7  -4  11    2.00    1.50
  -7  -4  11    0.10    1.40
  -7   4 -11    0.50    2.10
   7   4  11    1.30    1.70
  -7  -4  11    0.30    1.60
  -7   4 -11    1.10    1.40
  -8  -4 -11    0.30    1.20
   8  -4  11    1.00    0.90
  -8   4  11    0.20    0.90
   8   4 -11    1.20    1.70
  -8  -4  11    0.80    1.30
  -8   4 -11    1.00    1.80
   8   4  11    0.70    1.30
   0  -5 -11   89.69    5.60
   0  -5  11   90.79    6.50
   0  -5  11   77.79    6.30
   0  -5 -11   86.19    6.10
   0  -5  11   86.59    6.30
   0   5  11   84.39    6.40
   0  -5  11   93.19    5.90
   0  -5  11   86.89    6.40
   0  -5  11   77.29    7.40
   1  -5  11  145.69    8.20
  -1  -5 -11  133.09    8.00
   1   5 -11  141.99    8.90
   1  -5  11  150.28    8.80
   1  -5  11  140.79    9.40
  -1  -5 -11  139.39    8.80
   1  -5  11  135.29    8.70
   1  -5  11  147.49    9.80
  -1   5  11  146.79    9.20
   1  -5  11  139.09    8.90
   1   5  11  143.19   10.20
  -1  -5  11  139.89    9.20
  -1  -5  11  137.09    9.20
  -1  -5  11  144.59    8.70
  -1  -5  11  138.69    8.90
  -1  -5  11  144.59    9.30
   1  -5 -11  153.58    8.40
  -1  -5  11  124.69    8.80
   1   5  11  126.79    8.80
  -2   5  11   11.80    2.40
   2   5 -11   12.30    2.90
   2  -5  11   14.70    3.40
   2  -5  11    8.90    2.00
   2  -5  11   11.90    3.10
   2  -5  11   11.60    2.40
  -2  -5 -11   12.30    1.90
  -2  -5  11    8.80    2.80
   2   5  11   15.30    2.80
  -2  -5  11   14.50    3.00
  -2  -5  11   13.50    3.40
  -2  -5  11   12.00    2.80
   2   5  11    8.90    2.60
   2  -5 -11   11.50    2.10
  -2  -5  11   12.70    2.70
   3  -5  11   13.30    3.00
   3  -5  11   14.90    3.40
  -3   5  11   17.00    2.90
  -3   5  11   12.70    3.60
   3  -5  11   17.80    2.10
   3  -5  11   17.90    3.80
   3  -5  11   11.60    3.30
   3  -5 -11   14.60    3.40
  -3   5 -11   16.10    3.00
  -3  -5  11   17.00    3.10
   3   5  11   14.90    3.00
  -3  -5  11   12.60    2.70
  -3  -5  11   13.90    3.20
   3   5  11   12.30    2.50
  -3  -5  11   13.20    3.00
   4  -5  11    2.40    2.40
   4  -5  11    0.30    1.40
  -4   5  11   -0.40    1.80
   4  -5  11    0.50    3.00
   4  -5  11    0.50    1.50
  -4   5  11    1.20    1.90
   4  -5  11    4.60    3.00
   4   5  11    0.60    1.80
  -4  -5  11    0.40    1.90
  -4  -5  11    2.70    2.30
  -4   5 -11    1.10    2.50
  -4  -5  11    3.40    1.80
   4   5  11    0.80    1.90
  -4   5 -11    2.30    1.90
   4  -5 -11    1.70    1.70
  -4  -5  11    0.50    1.80
   5  -5  11    1.00    1.50
   5  -5  11    0.70    2.40
   5  -5  11    0.70    2.70
   5  -5  11    2.00    2.20
   5   5 -11    0.50    2.80
  -5   5  11    2.60    2.30
   5   5  11    3.30    2.50
  -5  -5  11    2.50    1.90
  -5   5 -11    2.20    2.30
   5   5  11    3.10    2.10
  -5  -5  11    1.80    1.60
  -5  -5  11   -0.20    1.60
  -5   5 -11    3.90    2.00
  -5  -5  11    0.70    2.10
  -6   5  11    1.20    1.80
   6  -5  11    1.70    2.00
   6  -5  11    0.40    1.40
   6  -5  11   -0.40    1.40
   6   5 -11   -0.80    2.10
  -6   5 -11    3.60    2.40
  -6  -5  11   -0.20    1.60
  -6  -5  11    0.70    1.60
  -6   5 -11    0.50    1.30
   6   5  11    1.40    1.80
  -6  -5  11   -0.30    1.80
   6   5  11    2.20    1.70
   7   5 -11   -1.90    1.40
  -7  -5 -11    0.40    1.30
   7  -5  11   -1.20    1.10
  -7   5  11    1.40    1.50
   7  -5  11   -0.20    1.10
  -7   5 -11    5.40    2.10
  -7   5 -11    1.00    1.20
  -7  -5  11    1.50    1.40
   7   5  11    0.20    1.60
  -7  -5  11   -0.30    1.50
  -7  -5  11    0.90    1.30
  -8  -5 -11    4.20    1.00
  -8   5  11    2.30    1.00
   8   5 -11    4.60    1.30
   0  -6  11  344.17   18.70
   0  -6 -11  341.97   18.60
   0  -6  11  335.37   18.90
   0  -6  11  343.87   18.90
   0  -6  11  340.77   19.10
   0  -6  11  341.37   18.40
  -1   6  11    5.10    2.10
  -1  -6 -11    4.90    2.30
   1  -6  11   -4.30    2.20
   1  -6  11    5.10    3.80
   1  -6  11    4.00    1.80
   1  -6  11    0.10    2.10
   1  -6  11    2.40    2.80
   1  -6 -11    1.90    1.90
  -1  -6  11    4.40    2.70
  -1  -6  11    2.20    1.50
  -1  -6  11    3.00    2.00
   1   6  11    2.80    2.10
  -1  -6  11    2.80    1.80
  -1  -6  11    4.20    2.40
  -1  -6  11    3.00    2.40
  -2  -6 -11   16.70    3.20
   2  -6  11   17.60    3.70
   2  -6  11   17.00    3.00
   2  -6  11   19.70    4.00
  -2   6  11   15.40    3.00
   2  -6  11   18.30    3.80
   2  -6 -11   16.50    2.10
  -2  -6  11   20.50    6.50
  -2  -6  11   15.80    3.20
  -2  -6  11   15.60    2.70
  -2  -6  11   18.70    4.00
  -2  -6  11   18.70    3.50
  -2  -6  11    8.70    2.20
  -3   6  11   69.49    5.90
   3  -6  11   64.99    6.40
   3  -6  11   67.59    6.40
   3  -6  11   59.59    5.60
  -3   6  11   71.29    5.80
   3  -6  11   64.09    7.00
   3   6  11   61.19    5.60
   3   6  11   73.39    5.60
  -3  -6  11   64.69    6.00
  -3  -6  11   67.69    7.70
  -3  -6  11   64.19    6.10
  -3   6 -11   62.59    9.30
  -3  -6  11   57.59    6.40
  -3  -6  11   61.29    5.40
  -3   6 -11   68.79    5.70
   4  -6  11    6.70    3.80
   4  -6  11    7.20    4.00
   4  -6  11    3.90    4.50
  -4   6  11    3.00    3.20
  -4  -6  11   12.00    2.40
   4   6  11    9.40    2.70
  -4  -6  11    4.00    2.80
  -4   6 -11    3.90    2.30
  -4  -6  11    3.40    1.60
  -4   6 -11   10.00    2.70
  -5   6  11   18.20    3.10
   5  -6  11   17.10    3.30
   5  -6  11   24.40    3.90
   5  -6  11   18.10    3.30
  -5  -6  11   12.30    2.70
   5   6  11   11.60    2.90
  -5  -6  11   16.60    2.60
  -5   6 -11   12.40    3.40
  -5  -6  11   15.20    2.80
  -5  -6  11   11.00    2.50
   5   6  11   18.80    3.00
  -5   6 -11   17.90    2.60
   6  -6  11   -1.10    1.90
   6  -6  11    0.50    1.40
   6   6 -11   -0.10    1.60
   6   6  11    0.40    1.50
   6   6  11    1.00    1.60
  -6  -6  11   -0.80    1.60
  -6  -6  11    0.30    1.60
  -6  -6  11    2.10    1.50
  -6   6 -11    0.60    1.00
  -6   6 -11    0.80    1.80
  -7  -6 -11    1.70    1.20
   7  -6  11    4.30    1.10
   7   6 -11    1.90    1.30
  -7   6  11    0.80    1.10
  -7  -6 -11    1.50    1.10
  -7  -6  11    1.20    1.40
  -7   6 -11    3.10    1.30
  -7  -6  11    2.40    1.40
   0  -7  11   51.49    5.30
   0  -7  11   68.29    6.00
   0  -7  11   72.69    8.10
   0  -7 -11   66.49    5.30
   0   7  11   64.79    5.60
   0  -7  11   58.29    5.30
   0  -7  11   65.39    5.40
   1  -7  11   25.40    4.30
  -1   7  11   21.70    3.60
   1  -7  11   20.70    3.30
  -1  -7 -11   22.60    3.30
   1  -7  11   16.20    2.80
   1  -7  11   22.80    4.30
  -1  -7  11   17.40    3.00
  -1  -7  11   19.90    3.40
  -1  -7  11   21.00    3.00
  -1  -7  11   22.20    4.00
  -1  -7  11   11.90    2.30
   1   7  11   20.30    3.40
  -1  -7  11   21.00    4.00
   2  -7  11   71.99    5.80
   2  -7  11   71.29    6.50
   2  -7  11   72.59    6.30
  -2   7  11   67.79    5.90
  -2  -7 -11   69.09    5.80
   2  -7  11   73.09    7.20
  -2  -7  11   54.59    5.80
  -2  -7  11   68.49    5.50
   2   7  11   61.69    5.60
  -2  -7  11   61.29    5.80
  -2  -7  11   62.29    6.60
  -2  -7  11   60.99    5.30
  -2  -7  11   53.69    6.30
   3  -7  11   -1.50    2.60
   3  -7  11    8.60    3.10
   3  -7  11    4.00    3.00
  -3   7  11    4.60    2.60
  -3   7  11    6.60    2.50
   3  -7  11   14.30    5.10
  -3  -7  11    3.50    1.50
  -3   7 -11   10.00    2.90
   3   7  11    5.60    2.10
  -3  -7  11    7.50    2.10
  -3  -7  11    6.80    6.50
   3   7  11    7.60    2.30
  -3   7 -11    8.30    3.00
  -3  -7  11    6.60    2.40
  -3  -7  11    5.80    3.10
   4  -7  11   15.40    3.60
  -4   7  11   12.90    2.70
   4  -7  11   12.10    3.20
   4  -7  11   17.00    4.90
  -4  -7  11   16.80    3.10
  -4  -7  11   16.70    2.60
  -4   7 -11   17.20    3.10
   4   7  11   16.50    2.60
   4   7  11    7.70    2.70
  -4  -7  11    7.20    2.20
   5  -7  11    3.20    2.10
  -5   7  11    0.00    1.60
   5  -7  11    4.30    2.10
   5  -7  11    2.90    2.70
  -5   7 -11    2.10    1.30
   5   7  11    4.10    2.20
  -5  -7  11    1.80    2.10
  -5  -7  11    1.80    1.80
   5   7  11    0.80    1.80
  -5  -7  11   -0.70    2.90
  -5   7 -11    7.10    2.60
   6  -7  11   -0.10    1.20
  -6  -7 -11    0.40    1.20
  -6   7  11    0.10    1.20
  -6  -7  11    0.90    1.50
   6   7  11    1.80    1.40
  -6   7 -11    0.10    0.80
  -6  -7  11   -1.10    1.60
  -7   7  11    1.40    0.90
  -7  -7 -11    3.00    0.80
  -7  -7 -11    1.60    0.90
  -7  -7  11    6.80    1.40
  -7   7 -11    5.50    1.10
  -7  -7  11    3.00    1.10
   0  -8  11    0.70    2.20
   0  -8  11    1.80    2.80
   0  -8 -11   -0.40    1.60
   0  -8  11   -0.20    1.60
   0   8  11    0.50    2.00
   1  -8  11   -0.30    3.10
  -1   8  11   -0.70    2.60
   1  -8  11    1.80    3.00
   1  -8  11    6.50    3.00
  -1  -8 -11   -0.50    1.70
  -1  -8  11    0.00    3.00
   1   8  11    1.50    2.00
  -1  -8  11    5.50    3.80
  -1  -8  11    2.60    3.10
  -1  -8  11    3.00    2.90
  -2   8  11   -0.10    2.60
   2  -8  11    7.10    4.80
  -2   8  11    0.60    1.70
  -2  -8  11    0.60    5.40
  -2  -8  11   -0.50    1.60
  -2  -8  11   -0.60    4.60
  -2  -8  11    0.50    1.90
  -2  -8  11   -0.70    1.70
   2   8  11    0.20    2.10
   3  -8  11   13.10    5.40
   3  -8  11    6.20    3.40
  -3   8  11    8.80    2.60
   3  -8  11    6.50    2.70
   3   8  11   10.10    2.40
  -3  -8  11    1.80    2.40
  -3  -8  11    1.40    7.10
  -3   8 -11    5.60    1.80
  -3  -8  11    8.70    2.50
  -3  -8  11    9.60    2.40
   4  -8  11   -2.20    2.40
   4  -8  11   -0.80    3.40
   4  -8  11    2.20    2.20
  -4   8  11    1.20    1.80
  -4  -8  11    2.70    1.70
  -4  -8  11    0.40    1.60
   4   8  11    0.10    1.70
  -4   8 -11   -0.10    1.20
   5  -8  11    5.30    3.60
  -5   8  11    6.70    1.90
   5  -8  11    3.50    1.70
  -5  -8  11    8.90    2.20
  -5  -8  11   11.20    2.20
   5   8  11   12.70    1.90
  -6   8  11    3.30    1.50
  -6  -8 -11    2.10    1.00
   6  -8  11    1.60    1.10
  -6  -8 -11    2.20    1.00
  -6  -8  11    1.00    1.10
  -6   8 -11    1.30    1.40
  -6  -8  11    1.20    1.20
   0  -9  11   32.40    4.80
   0  -9  11   26.80    4.10
   0  -9  11   26.30    5.50
   1  -9  11    2.20    3.80
   1  -9  11    5.30    2.80
   1  -9  11    7.00    4.80
  -1  -9  11   -2.00    2.30
  -1  -9  11    1.80    3.00
  -1  -9  11    2.40    6.00
  -1  -9  11    2.30    3.90
   2  -9  11    1.20    5.10
   2  -9  11    5.70    4.00
  -2   9  11    3.90    1.90
   2  -9  11    0.70    2.40
  -2  -9  11    1.40    6.30
  -2  -9  11    2.00    1.70
  -2  -9  11    2.40    2.00
   2   9  11    3.10    1.80
  -2  -9  11    2.10    8.90
  -3   9  11    1.80    1.60
   3  -9  11    2.10    3.00
   3  -9  11    2.50    2.20
   3  -9  11    1.40    4.00
  -3  -9  11   -3.90    5.90
   3   9  11    1.60    1.60
  -3  -9  11   -0.40    1.10
  -3  -9  11    0.70    1.70
  -3   9 -11   -0.80    1.10
  -4   9  11    0.40    1.60
   4  -9  11    1.40    1.60
   4  -9  11    4.40    4.50
  -4  -9  11   -3.20    1.20
  -4   9 -11   -2.00    1.10
  -4  -9  11    0.20    1.40
   4   9  11    2.50    2.50
   5  -9  11    1.40    5.60
  -5  -9 -11    1.50    1.10
   5  -9  11   -0.50    1.20
  -5  -9 -11    0.90    0.70
   5   9  11    4.30    1.70
  -5   9 -11    3.50    1.20
   0 -10  11   -2.30    8.70
   0 -10  11    2.70    4.10
   1 -10  11    5.50    3.10
  -1 -10  11    7.60    5.30
  -1 -10  11    7.80    8.00
   2 -10  11    0.90    5.90
   2 -10  11    2.00    2.40
   2  10  11    2.30    1.40
  -2 -10  11   -4.70    5.80
  -2 -10  11   -3.90    8.20
   3 -10  11    1.30    4.50
  -3 -10 -11    2.00    1.10
   3 -10  11    3.50    1.90
  -3 -10  11    1.90    1.10
  -4 -10 -11    1.50    0.90
   4 -10  11    2.20    3.70
   4 -10  11    1.20    1.40
   4  10  11    3.70    1.80
  -4 -10  11    0.80    1.70
   0  11  11    0.10    0.90
   0 -11  11   -7.50    5.80
   0 -11  11   -3.80    4.50
  -1  11  11    3.20    1.10
   1 -11  11   -0.30    3.50
   1 -11  11    2.70    5.80
   1  11  11    6.80    1.20
  -1 -11  11    2.10    4.40
   2 -11  11    0.30    2.50
   2 -11  11    3.80    4.90
   2  11  11   -0.60    1.10
   0   0  12    5.40    1.60
  -1   0  12   38.80    3.50
   1   0  12   33.80    3.10
   1   0  12   34.40    3.00
  -1   0  12   36.70    3.60
   1   0  12   38.20    4.50
   1   0  12   35.70    3.60
   2   0  12   11.20    2.60
   2   0  12    8.20    1.50
   2   0  12    8.70    1.90
  -2   0  12    4.80    1.80
  -2   0  12    5.30    1.70
  -2   0 -12    8.10    1.80
   2   0  12   10.20    2.10
  -2   0  12   12.10    3.50
   3   0  12    0.00    0.90
  -3   0  12    0.30    1.40
   3   0  12   -0.60    1.20
  -3   0  12    0.70    1.70
  -3   0  12   -0.60    1.20
   3   0  12   -0.90    1.20
   3   0 -12    0.60    3.50
   3   0  12   -0.50    1.10
  -3   0  12   -3.20    1.20
  -3   0 -12   -0.10    1.40
  -4   0  12   -0.50    1.50
   4   0  12    0.60    1.60
  -4   0  12    0.50    1.80
  -4   0 -12    0.70    1.60
   4   0  12    2.50    1.30
   4   0  12    1.80    1.50
   4   0 -12   -0.70    1.90
  -4   0  12   -1.00    1.50
   5   0 -12  118.79    8.60
   5   0  12  111.19    7.70
  -5   0 -12  119.29    7.70
  -5   0  12  122.39    8.00
   5   0  12  123.19    8.40
  -5   0  12  128.59    8.10
  -5   0  12  121.19    8.10
   5   0  12  110.89    7.40
  -5   0  12  113.49    8.20
  -6   0 -12   16.00    3.50
  -6   0 -12   17.80    3.80
  -6   0  12   16.40    2.80
  -6   0 -12   15.90    2.50
  -6   0  12   10.20    2.90
  -6   0  12   17.20    3.30
  -6   0  12   15.20    2.60
   6   0  12   19.90    3.70
   6   0 -12   11.30    3.30
  -7   0  12   39.00    4.10
  -7   0 -12   32.90    3.20
   7   0 -12   37.40    4.70
  -7   0 -12   44.30    5.60
  -7   0 -12   36.40    4.90
  -7   0  12   41.10    4.60
   8   0 -12    3.00    1.70
  -8   0  12    0.10    0.80
  -8   0  12    1.70    1.40
  -8   0 -12    0.20    1.10
  -8   0 -12    2.40    1.80
   8   0  12    1.30    1.30
   0  -1  12  105.89    6.90
   0  -1  12  100.89    7.10
   0  -1  12  107.29    7.00
   0   1  12  110.59    7.00
   0   1  12  112.19    6.80
   0   1  12  104.89    6.70
  -1   1  12   19.80    2.60
  -1   1  12   15.80    2.50
   1  -1  12   21.60    3.00
   1  -1  12   16.10    2.30
   1  -1  12   15.00    2.50
  -1   1  12   18.50    2.80
   1   1  12   19.20    2.80
  -1  -1  12   10.90    2.00
   1   1  12   17.90    2.50
  -1  -1  12   15.60    2.50
  -1  -1  12   18.10    2.50
  -1  -1  12   16.10    2.70
   2  -1  12   25.90    3.30
   2  -1  12   22.20    2.70
  -2   1  12   25.10    3.30
   2  -1  12   21.10    2.40
   2  -1  12   25.50    3.10
  -2   1  12   24.20    2.80
  -2   1  12   28.40    3.40
   2  -1  12   24.80    2.70
  -2  -1  12   28.50    5.80
   2   1  12   25.20    3.90
  -2  -1  12   27.70    3.50
   2   1  12   26.00    4.10
  -2  -1  12   32.00    3.40
  -2  -1  12   22.50    2.60
   2   1  12   23.10    2.80
   2  -1 -12   21.80    3.10
  -2  -1  12   26.70    3.10
  -3  -1 -12  133.69    8.00
   3  -1  12  130.69    8.00
   3  -1  12  129.99    8.10
  -3   1  12  141.49    8.50
   3  -1  12  126.39    8.40
  -3   1  12  126.49    8.30
  -3   1  12  122.29    8.60
   3   1 -12  118.99    8.90
  -3   1  12  130.89    8.30
   3  -1  12  135.49    8.10
  -3  -1  12  134.69    7.90
  -3  -1  12  130.79    8.60
   3   1  12  124.99    8.10
  -3  -1  12  131.49    8.20
   3   1  12  136.09    8.00
  -3  -1  12  130.39    8.50
  -3   1 -12  125.49    7.90
   3  -1 -12  122.29    8.20
   3   1  12  132.49    8.40
  -4   1  12  240.18   14.00
   4   1 -12  233.98   14.10
   4  -1  12  257.77   14.20
   4  -1  12  257.37   14.40
   4  -1  12  247.78   13.90
  -4   1  12  263.67   14.30
  -4   1  12  264.27   14.10
  -4  -1 -12  249.18   13.70
  -4   1  12  248.18   14.20
   4  -1  12  252.87   14.20
   4   1  12  242.18   13.50
  -4  -1  12  261.77   14.30
   4   1  12  242.78   14.30
  -4  -1  12  252.67   16.00
  -4  -1  12  221.48   14.90
   4   1  12  241.88   14.30
  -4   1 -12  238.88   13.90
   4   1  12  229.28   14.80
  -5   1  12   99.99    7.20
   5   1 -12   94.49    7.40
   5  -1  12  102.69    7.40
  -5   1  12   94.79    6.70
   5  -1  12   88.99    6.80
  -5  -1 -12   98.39    8.00
   5  -1  12   97.99    6.60
  -5   1  12   98.69    7.00
  -5  -1 -12   99.99    6.70
   5   1  12  105.79    7.40
  -5  -1  12   97.89    7.50
  -5  -1  12   97.69    7.30
   5  -1 -12   97.89    7.70
  -5  -1  12   94.99    7.00
  -5   1 -12   93.59    6.80
  -5  -1  12   99.99    6.70
   6  -1  12    2.40    2.30
  -6   1  12    0.10    1.80
  -6  -1 -12    2.90    1.60
  -6  -1 -12    2.40    2.20
  -6   1  12    5.60    4.00
  -6   1  12    4.40    3.30
   6  -1  12    3.30    1.50
  -6  -1 -12    5.60    2.60
   6   1 -12   -0.60    2.50
  -6   1 -12    3.20    2.30
  -6  -1  12    1.20    1.50
   6  -1 -12    0.80    2.40
  -6  -1  12   -4.20    2.20
   6   1  12    2.80    2.30
  -6   1 -12   -3.10    2.70
  -6   1 -12    2.20    1.80
  -6  -1  12    3.10    2.00
  -6  -1  12    2.50    2.10
  -7   1  12    2.90    1.80
   7  -1  12    1.00    2.00
  -7  -1 -12    0.00    2.20
   7   1 -12    1.30    2.20
  -7  -1 -12    1.20    1.80
  -7   1  12    1.70    2.10
  -7  -1  12    0.00    1.50
  -7   1 -12    2.60    2.20
  -7  -1  12    1.80    1.30
   7   1  12    2.60    2.10
  -7   1 -12    0.20    1.70
   7  -1 -12    1.00    2.20
  -7   1 -12    2.70    1.50
   8  -1  12    0.20    1.10
  -8  -1 -12    2.60    1.80
   8   1 -12    1.40    1.60
  -8  -1 -12    1.10    1.20
  -8   1  12    1.30    1.10
   8  -1  12    1.30    1.40
  -8   1 -12   -1.20    1.80
  -8  -1  12   -0.50    1.20
   8  -1 -12    0.50    1.90
  -8  -1  12    1.50    1.20
   8   1  12    0.70    1.30
  -8   1 -12    1.50    1.80
   0  -2 -12  224.78   12.70
   0  -2  12  227.28   13.00
   0  -2  12  227.88   13.00
   0   2  12  220.38   12.80
   0   2  12  239.28   13.20
   0  -2  12  244.58   12.70
   0  -2  12  218.08   12.70
   1  -2  12   97.59    6.20
   1  -2  12  102.49    6.80
  -1   2  12  110.49    6.90
  -1   2  12  108.99    7.00
   1  -2  12   95.29    6.50
   1  -2  12   81.09    8.60
  -1  -2 -12  112.59    7.20
   1  -2 -12  100.39    6.80
  -1  -2  12  116.09    6.70
  -1  -2  12  102.09    9.30
   1   2  12   84.99    8.10
  -2   2  12   29.40    3.40
   2  -2  12   31.30    2.70
  -2  -2 -12   29.00    3.30
   2  -2  12   25.90    3.30
   2  -2  12   38.00    3.10
   2  -2  12   39.70    3.90
  -2   2  12   24.00    4.80
   2  -2  12   33.70    3.30
  -2   2  12   37.10    3.60
   2   2  12   30.70    3.40
   2   2  12   31.90    3.70
  -2  -2  12   32.20    3.30
  -2  -2  12   32.70    3.40
  -2  -2  12   36.40    3.90
  -2  -2  12   33.50    3.80
   2  -2 -12   27.20    3.60
   2   2  12   28.40    3.40
   3  -2  12   85.49    6.00
   3  -2  12   79.89    6.40
   3  -2  12   90.79    6.50
  -3   2  12   88.59    6.20
  -3   2  12   92.59    6.30
  -3   2  12   83.59    6.00
   3  -2  12   91.79    6.00
  -3  -2 -12   85.29    5.80
   3  -2  12   88.29    6.10
  -3  -2  12   92.69    6.40
  -3  -2  12   92.69    6.70
  -3  -2  12   83.39    5.40
  -3   2 -12   85.89    6.00
   3   2  12   81.09    6.70
  -3  -2  12   91.09    6.40
   3   2  12   81.79    6.00
   3   2  12   63.09    7.60
   3  -2 -12   81.79    6.40
  -3  -2  12   88.89    6.60
   3   2  12   83.89    6.20
  -4   2  12   43.60    4.20
   4  -2  12   38.10    4.00
  -4   2  12   46.90    4.50
  -4   2  12   35.10    3.90
   4  -2  12   41.30    4.40
   4   2 -12   41.20    5.00
  -4  -2 -12   34.80    3.70
   4  -2  12   41.20    4.40
   4  -2  12   44.10    4.30
   4   2  12   38.30    4.20
  -4  -2  12   43.90    4.40
   4  -2 -12   45.60    5.00
  -4   2 -12   46.80    4.20
   4   2  12   31.30    5.20
   4   2  12   33.70    4.10
  -4  -2  12   45.50    4.90
  -4  -2  12   44.90    4.60
  -5  -2 -12   92.89    6.10
   5   2 -12   76.89    6.80
  -5   2  12   91.99    7.00
  -5   2  12   95.19    6.70
   5  -2  12   86.59    6.60
  -5  -2 -12   84.09    8.60
   5  -2  12   93.09    6.40
   5  -2  12   94.79    7.00
  -5  -2  12   60.89    7.80
  -5  -2  12   87.49    5.90
   5  -2 -12   99.59    7.30
  -5  -2  12   89.09    7.10
  -5   2 -12   90.19    6.60
  -5   2 -12   93.69    7.90
   5   2  12   92.69    7.00
  -5  -2  12   87.49    7.00
  -6  -2 -12   28.00    4.40
  -6   2  12   23.70    3.40
   6  -2  12   22.00    3.60
  -6  -2 -12   21.50    2.60
   6   2  12   17.70    3.70
  -6  -2  12   22.90    5.10
  -6  -2  12   19.30    3.10
  -6  -2  12   19.80    3.40
  -6   2 -12   23.20    3.10
  -6  -2  12   12.70    3.20
   6  -2 -12   22.80    3.70
  -6   2 -12   28.60    4.60
  -7  -2 -12   15.50    2.90
   7   2 -12   12.00    2.80
  -7   2  12   10.90    2.10
   7  -2  12    9.00    2.50
  -7  -2 -12   14.70    2.60
  -7  -2  12    7.80    1.50
   7   2  12    5.40    2.40
  -7  -2  12   16.50    2.70
  -7   2 -12   15.70    2.20
  -7   2 -12   16.30    3.40
  -7  -2  12    8.90    2.40
  -7  -2  12   15.40    2.60
   7  -2 -12   11.10    2.40
  -8   2  12    0.80    1.10
   8  -2  12    0.20    0.80
  -8  -2 -12    1.60    1.10
   8  -2  12    1.30    1.20
   8   2 -12   -0.20    1.50
  -8  -2  12    0.30    1.10
   8   2  12   -0.60    1.10
  -8   2 -12    1.30    1.40
  -8  -2  12    2.80    1.30
   8  -2 -12    0.00    1.00
   0  -3  12    0.90    1.30
   0   3  12    0.90    1.40
   0  -3  12    0.20    1.10
   0  -3 -12   -2.00    1.30
   0  -3  12    1.50    1.60
   0  -3  12    3.10    2.50
   0   3  12    1.10    1.30
   0  -3  12   -0.30    1.90
   0  -3  12    0.60    1.30
  -1  -3 -12   20.80    2.90
   1  -3  12   18.80    2.60
  -1   3  12   28.40    3.50
   1  -3  12   18.70    2.40
   1  -3  12   31.90    4.10
   1  -3  12   17.80    2.70
  -1   3  12   25.80    3.40
   1  -3  12   25.80    3.20
  -1  -3  12   21.40    3.00
   1  -3 -12   22.60    2.90
  -1  -3  12   22.00    2.90
   1   3  12   22.50    3.10
   1   3  12   22.30    2.80
  -1  -3  12   31.00    4.30
  -1  -3  12   25.90    3.10
   1   3  12   18.90    2.90
  -1  -3  12   19.80    2.80
   2  -3  12    4.30    1.60
   2  -3  12    0.60    1.80
   2  -3  12    2.60    1.70
   2  -3  12    3.10    1.10
   2  -3  12    2.50    2.10
  -2  -3 -12    2.60    1.40
  -2   3  12    0.30    1.60
  -2   3  12    1.10    1.30
  -2   3  12    0.60    1.50
   2  -3  12    1.60    1.20
   2   3  12   -0.10    1.40
  -2  -3  12    3.10    1.70
   2   3  12   -1.10    1.40
  -2  -3  12    0.50    1.70
   2   3  12    3.10    1.30
  -2  -3  12    1.80    1.60
   2  -3 -12   -0.50    1.70
   2   3  12    0.00    1.40
  -2  -3  12   -5.20    3.10
  -2  -3  12    2.90    1.40
  -3   3  12   58.29    5.10
   3  -3  12   53.59    4.40
  -3   3  12   53.39    4.80
   3  -3  12   61.09    5.00
  -3   3  12   56.89    4.80
   3  -3  12   57.79    5.30
  -3  -3 -12   56.39    4.40
   3  -3  12   60.29    6.00
   3   3  12   54.29    5.70
   3   3  12   52.29    4.80
  -3   3 -12   57.99    4.70
  -3  -3  12   48.70    5.00
   3   3  12   55.79    4.40
  -3  -3  12   54.49    5.20
   3  -3 -12   51.49    5.10
  -3  -3  12   55.29    5.00
  -3  -3  12   52.89    4.90
   4  -3  12    6.30    2.10
   4  -3  12    4.90    2.00
  -4  -3 -12    4.70    1.70
   4  -3  12    3.90    2.90
  -4   3  12    2.80    2.00
   4  -3  12    3.00    1.90
  -4   3  12    5.10    2.40
  -4   3 -12    5.50    3.00
  -4  -3  12    5.40    2.50
   4   3  12    4.20    2.20
  -4  -3  12    2.40    2.10
   4   3  12    4.70    2.30
  -4  -3  12    3.30    2.10
   4  -3 -12    5.00    2.30
  -4  -3  12    3.40    1.90
  -5  -3 -12   41.80    3.60
   5   3 -12   44.80    5.00
   5  -3  12   40.80    4.20
   5  -3  12   42.60    4.50
  -5  -3 -12   47.90    5.30
  -5   3  12   48.20    5.10
   5  -3  12   44.40    4.60
  -5   3  12   46.40    4.40
  -5  -3  12   50.99    5.10
  -5  -3  12   48.50    5.40
  -5   3 -12   47.20    4.70
  -5   3 -12   41.50    5.90
   5  -3 -12   49.90    5.20
  -5  -3  12   47.70    5.00
   5   3  12   35.00    3.80
  -5  -3  12   43.20    4.50
   5   3  12   39.30    4.70
  -6  -3 -12    3.70    3.20
   6   3 -12    3.00    2.20
   6  -3  12    3.60    1.60
   6  -3  12    3.00    2.10
  -6   3  12    2.50    2.10
  -6  -3  12    3.50    2.30
   6  -3 -12    5.80    2.30
   6   3  12    3.30    2.30
  -6  -3  12    3.80    2.20
  -6  -3  12    2.90    1.70
  -6   3 -12    3.60    1.90
  -6  -3  12    2.40    2.20
  -6   3 -12    3.40    2.30
  -7   3  12    0.40    1.50
   7  -3  12    0.60    1.40
  -7  -3 -12    1.60    2.00
   7   3 -12    5.00    3.20
   7  -3  12    0.00    2.10
   7  -3 -12   -0.90    1.80
  -7   3 -12    2.30    1.50
  -7  -3  12    1.50    1.50
  -7  -3  12    1.30    1.60
  -7  -3  12    1.90    1.90
   7   3  12    3.50    2.00
  -7   3 -12    1.90    2.30
   8  -3  12    0.00    0.90
  -8  -3 -12    0.70    1.20
   8   3 -12    2.70    1.40
   8  -3  12    0.10    1.20
  -8   3  12    0.80    1.00
   8   3  12   -0.60    0.90
  -8  -3  12   -0.30    0.90
  -8   3 -12    0.50    1.60
  -8  -3  12   -0.50    1.30
   0  -4  12  273.27   15.30
   0  -4 -12  268.57   14.60
   0   4 -12  281.07   14.60
   0  -4  12  269.97   15.30
   0  -4  12  281.17   14.80
   0  -4  12  258.47   15.10
   0   4  12  262.97   15.20
   0  -4  12  260.57   15.00
   0  -4  12  268.97   15.60
  -1   4  12   50.49    4.40
   1  -4  12   54.99    4.70
   1  -4  12   50.79    3.90
   1  -4  12   49.90    4.80
   1   4 -12   50.29    4.30
  -1  -4 -12   42.70    4.60
  -1   4  12   49.60    4.30
   1  -4  12   47.60    4.20
   1  -4  12   51.89    4.60
   1  -4  12   42.60    4.10
  -1  -4  12   49.20    4.70
  -1  -4  12   40.70    4.60
  -1  -4  12   51.19    4.30
  -1  -4  12   47.90    4.60
   1   4  12   41.70    4.20
   1  -4 -12   48.20    4.10
  -1  -4  12   37.10    4.20
  -1  -4  12   46.20    4.20
   2  -4  12   32.40    3.60
  -2  -4 -12   35.00    3.30
   2  -4  12   36.10    4.10
   2  -4  12   31.80    3.00
  -2   4  12   39.70    3.70
   2  -4  12   36.40    4.10
   2  -4  12   32.20    4.20
   2   4 -12   33.90    4.30
  -2   4  12   35.50    3.70
   2  -4  12   38.80    4.10
  -2   4  12   34.80    3.80
  -2  -4  12   34.70    4.20
  -2  -4  12   35.80    6.10
  -2  -4  12   35.70    3.80
   2   4  12   34.60    5.10
   2  -4 -12   39.60    3.90
   2   4  12   35.60    3.60
  -2  -4  12   31.70    3.80
   2   4  12   36.00    3.70
  -2  -4  12   26.80    3.80
  -2  -4  12   32.70    4.20
   3  -4  12   -2.60    1.10
  -3   4  12    1.80    1.90
  -3   4  12    0.10    1.50
  -3   4  12    0.10    1.40
   3   4 -12   -2.30    3.00
   3  -4  12    0.20    1.80
   3  -4  12    1.30    1.80
  -3  -4 -12   -0.20    1.20
   3  -4  12   -1.50    1.70
   3   4  12    0.30    1.50
   3   4  12   -0.70    1.60
  -3  -4  12    0.80    1.60
  -3  -4  12   -0.70    1.60
   3  -4 -12   -0.70    1.80
  -3  -4  12   -0.80    1.50
   4  -4  12    0.90    1.70
  -4   4  12    3.50    1.90
   4  -4  12    6.10    2.60
  -4   4  12    6.20    2.50
   4  -4  12    3.20    2.60
   4  -4  12    1.60    1.70
  -4  -4 -12    2.10    1.30
  -4  -4  12    5.50    2.40
  -4  -4  12    2.20    2.00
  -4  -4  12    3.10    2.20
  -4  -4  12    3.90    2.10
  -4   4 -12    4.50    2.00
   4  -4 -12    0.20    2.00
   4   4  12    2.50    1.90
   4   4  12    3.10    2.10
   5  -4  12    8.30    3.20
   5  -4  12   10.40    3.90
  -5   4  12   14.10    4.10
   5   4 -12   10.50    2.70
  -5  -4 -12   10.00    5.40
   5  -4  12    9.40    3.10
  -5  -4  12    9.90    3.50
   5   4  12   10.50    2.50
   5   4  12    8.90    3.00
  -5  -4  12    7.60    3.70
  -5  -4  12   17.70    3.30
  -5  -4  12   12.40    3.30
  -5   4 -12    9.30    2.90
  -5   4 -12    8.20    3.70
   6  -4  12    5.70    2.70
  -6   4  12    2.50    2.10
   6  -4  12    0.80    1.60
   6  -4  12    2.40    1.60
   6   4 -12    2.00    2.00
  -6   4 -12    2.60    1.80
   6   4  12    2.90    2.10
  -6   4 -12    3.20    2.70
  -6  -4  12    0.00    1.70
  -6  -4  12    4.30    2.00
  -6  -4  12    0.40    1.90
   6  -4 -12    0.70    1.70
  -7   4  12    6.50    2.00
   7   4 -12    6.20    2.00
  -7  -4 -12    4.20    1.70
   7  -4  12    3.70    1.60
   7  -4  12    4.00    1.80
  -7  -4  12    6.30    1.60
   7   4  12    3.40    1.80
  -7  -4  12    5.60    1.90
  -7   4 -12    7.50    2.40
  -7   4 -12    4.00    2.20
  -7  -4  12    9.20    2.90
   8   4 -12   17.60    2.20
  -8   4  12   15.80    1.70
  -8  -4  12   17.10    2.20
   0  -5 -12   72.59    4.80
   0  -5  12   58.09    5.20
   0  -5  12   61.69    5.50
   0  -5  12   57.39    5.30
   0   5  12   59.39    5.30
   0  -5  12   73.49    5.60
   0  -5  12   61.59    6.20
   0  -5  12   66.69    5.00
   1  -5  12   19.80    4.60
  -1   5  12   20.00    3.10
   1  -5  12   14.70    2.60
  -1  -5 -12   15.10    2.20
   1  -5  12   17.20    3.50
   1  -5  12   15.70    2.20
   1  -5  12   18.60    3.00
   1  -5  12   16.10    2.60
  -1  -5  12    9.30    2.10
   1   5  12   18.20    3.10
  -1  -5  12   19.50    4.20
  -1  -5  12   21.20    3.40
  -1  -5  12   24.00    4.80
  -1  -5  12   13.10    3.20
   1  -5 -12   11.70    2.50
  -1  -5  12   12.00    3.10
  -2   5  12   18.20    3.00
   2  -5  12   12.50    2.60
   2  -5  12   18.80    4.40
   2  -5  12   20.00    4.50
  -2   5  12   13.50    2.40
   2   5 -12   15.00    6.10
  -2  -5 -12    9.10    3.00
   2  -5  12   17.90    5.60
  -2  -5  12   14.20    3.00
  -2  -5  12    9.60    2.50
  -2  -5  12    8.90    3.10
   2  -5 -12   14.00    2.30
  -2  -5  12   12.60    4.70
  -2  -5  12   17.90    2.80
   2   5  12   16.00    2.90
  -2  -5  12   15.70    3.50
   3  -5  12   49.00    5.70
  -3   5  12   44.80    5.40
  -3   5  12   33.50    4.30
   3  -5  12   36.80    4.50
   3  -5  12   42.80    5.10
   3  -5  12   35.30    3.20
   3  -5  12   38.20    4.80
  -3  -5  12   41.50    4.80
   3  -5 -12   41.30    3.90
  -3  -5  12   39.10    4.30
   3   5  12   45.50    4.90
  -3  -5  12   38.90    4.90
  -3  -5  12   30.60    4.10
  -3   5 -12   42.60    5.60
   3   5  12   36.80    4.20
   4  -5  12    4.80    3.50
   4  -5  12    3.10    2.80
   4  -5  12    4.80    1.60
   4  -5  12    0.60    2.30
  -4   5  12    5.90    2.40
  -4   5  12    4.50    2.10
   4  -5  12    4.10    1.80
  -4   5 -12    4.40    2.90
   4  -5 -12    6.80    1.90
  -4  -5  12    2.30    2.00
   4   5  12    3.30    1.90
  -4  -5  12    3.90    1.90
  -4   5 -12    5.30    2.30
  -4  -5  12    3.50    2.10
  -4  -5  12    2.40    1.90
   4   5  12    3.30    2.10
  -5   5  12   23.00    3.60
   5  -5  12   37.70    6.10
   5  -5  12   33.00    4.90
   5  -5  12   30.70    3.40
   5  -5  12   24.80    3.80
   5   5  12   34.30    3.80
  -5   5 -12   38.90    4.10
   5  -5 -12   31.40    3.10
  -5  -5  12   33.50    3.90
   5   5  12   33.30    4.20
  -5   5 -12   32.40    5.10
  -5  -5  12   41.30    5.60
  -5  -5  12   29.10    4.80
   6   5 -12    2.50    1.90
   6  -5  12   -0.90    2.10
  -6   5  12   -1.30    1.60
   6  -5  12   -2.60    1.50
   6  -5  12    0.10    1.40
   6  -5  12   -0.30    1.30
  -6   5 -12    0.30    1.20
  -6   5 -12    2.60    2.30
  -6  -5  12    1.80    1.80
  -6  -5  12   -0.10    1.50
   6   5  12    3.20    2.10
  -6  -5  12    2.30    2.00
  -7   5  12    0.80    1.30
   7   5 -12   -0.20    1.40
  -7  -5 -12    0.70    1.10
   7  -5  12    0.60    1.10
  -7  -5  12   -0.80    1.00
  -7  -5  12    0.80    1.70
  -7   5 -12   -0.30    1.00
  -7   5 -12    4.00    2.00
   7   5  12   -1.20    1.20
  -7  -5  12    0.90    1.40
   0  -6  12   20.60    4.60
   0  -6  12   18.50    3.50
   0   6  12   18.70    5.00
   0  -6  12   17.20    2.60
   0  -6  12   18.10    3.00
   0  -6  12   19.10    3.20
   0  -6  12   25.20    3.70
   1  -6  12   53.09    5.40
   1  -6  12   50.79    4.90
   1  -6  12   49.70    6.20
   1  -6  12   49.20    5.40
  -1   6  12   54.49    5.00
  -1  -6  12   55.09    5.00
  -1  -6  12   56.89    4.80
   1  -6 -12   50.29    3.80
  -1  -6  12   55.89    5.60
   1   6  12   49.90    4.80
  -1  -6  12   45.00    4.90
  -1  -6  12   47.20    5.10
  -1  -6  12   48.30    5.30
   2  -6  12   61.49    5.80
  -2   6  12   62.29    5.20
   2  -6  12   62.89    6.10
   2  -6  12   66.09    5.80
   2  -6  12   66.49    6.00
  -2   6  12   63.39    5.60
  -2  -6  12   58.09    5.30
  -2  -6  12   56.29    5.80
  -2  -6  12   62.59    5.30
   2   6  12   50.19    5.30
  -2  -6  12   57.79    5.80
  -2  -6  12   58.39    5.90
  -2  -6  12   55.89    5.40
   2  -6 -12   61.39    4.20
   3  -6  12   -0.60    2.20
  -3   6  12    1.40    1.80
   3  -6  12    0.40    2.10
   3  -6  12    1.10    3.40
   3  -6  12   -1.10    2.30
  -3   6  12    2.30    1.90
  -3   6 -12    6.70    2.50
  -3  -6  12   -0.10    1.80
  -3  -6  12    2.40    1.80
  -3  -6  12    2.10    2.40
  -3  -6  12    1.30    1.90
  -3  -6  12   -2.70    2.70
   3   6  12   -0.10    1.70
   3   6  12    0.70    1.90
   3  -6 -12   -1.90    1.60
  -3   6 -12   -1.10    2.60
   4  -6  12    4.10    2.70
   4  -6  12    4.60    2.60
   4  -6  12    1.30    4.50
   4  -6  12    1.30    1.50
  -4   6  12    1.50    2.10
   4   6  12    4.30    2.20
  -4  -6  12    1.90    2.00
  -4   6 -12    3.60    2.30
  -4   6 -12    3.20    3.20
   4   6  12    2.50    2.10
  -4  -6  12    2.50    2.00
  -4  -6  12    1.10    2.10
   5  -6  12   -0.50    2.00
   5  -6  12   -0.30    2.00
  -5   6  12   -0.40    1.70
   5  -6  12    0.30    2.70
  -5  -6  12    1.60    1.90
   5   6  12    0.70    1.80
  -5  -6  12    0.30    1.50
   5   6  12    0.50    1.70
  -5   6 -12   -0.80    1.50
  -5   6 -12    0.00    2.00
  -5  -6  12    0.30    1.60
   6   6 -12    1.40    1.60
   6  -6  12   -2.20    1.50
  -6   6  12    0.90    1.50
  -6  -6  12   -1.40    1.60
   6   6  12    1.70    1.50
  -6   6 -12   -0.30    0.90
  -6  -6  12    1.00    1.70
  -6   6 -12   -0.20    1.70
  -6  -6  12    1.40    1.40
  -7   6  12    2.30    1.20
   7   6 -12   -0.30    1.20
   7  -6  12   -1.00    1.00
  -7  -6 -12    1.50    1.10
  -7  -6 -12    0.60    0.80
  -7  -6  12    2.60    1.60
  -7   6 -12    2.20    1.10
  -7  -6  12    1.40    1.10
   0  -7  12   -0.90    1.70
   0  -7  12   -2.60    2.90
   0   7  12    0.50    1.80
   0  -7  12   -2.40    1.20
   0  -7  12    0.20    2.50
   0  -7  12   -2.10    1.70
   1  -7  12    8.90    2.80
  -1   7  12   22.10    3.50
   1  -7  12   11.50    2.50
   1  -7  12   12.90    3.40
   1  -7  12   10.90    3.30
  -1  -7  12   18.30    3.40
  -1  -7  12   17.10    2.90
  -1  -7  12   16.90    2.70
  -1  -7  12   11.40    2.40
  -1  -7  12   18.90    3.80
  -1  -7  12   21.70    4.20
   1   7  12   19.50    3.20
  -2   7  12    8.80    3.30
   2  -7  12    9.80    3.30
   2  -7  12   10.40    3.30
   2  -7  12   10.20    3.90
   2  -7  12   10.20    3.60
  -2   7  12    4.60    2.20
  -2  -7  12   15.40    3.60
  -2  -7  12    7.90    2.90
  -2  -7  12    9.00    2.20
  -2  -7  12    8.60    3.20
  -3   7  12    3.10    4.30
   3  -7  12    6.20    3.30
   3  -7  12    7.00    7.60
  -3   7  12    6.90    2.30
   3  -7  12    4.30    2.90
  -3  -7  12    6.70    2.10
  -3  -7  12    8.60    3.90
   3   7  12    8.90    3.20
  -3  -7  12    4.30    2.90
  -3   7 -12    8.30    2.30
  -3  -7  12    6.50    2.20
   3   7  12    7.20    2.40
  -4   7  12    5.90    2.30
   4  -7  12    8.40    4.80
   4  -7  12    5.00    2.60
   4  -7  12    7.00    2.80
   4   7  12    7.10    2.70
  -4  -7  12    9.50    2.60
   4   7  12    2.30    2.00
  -4   7 -12   11.20    2.50
  -4  -7  12    7.90    2.40
  -4  -7  12    9.10    2.20
  -4   7 -12    5.00    1.60
   5  -7  12    0.30    2.20
  -5   7  12    0.40    1.60
   5  -7  12    0.70    1.90
   5  -7  12    0.90    2.10
   5   7  12    0.10    1.60
  -5   7 -12    0.10    2.70
  -5   7 -12   -0.60    1.10
  -5  -7  12    1.80    1.80
  -5  -7  12   -4.20    2.00
  -5  -7  12   -0.80    1.50
  -6  -7 -12    0.80    1.00
  -6   7  12   -0.60    1.10
   6  -7  12    1.60    1.20
  -6   7 -12   -0.40    0.60
  -6  -7  12   -0.40    1.20
  -6  -7  12    2.20    2.10
   0  -8  12   31.70    3.90
   0   8  12   35.40    4.00
   0  -8  12   31.90    3.90
   1  -8  12    2.90    3.10
  -1   8  12    3.40    2.00
   1  -8  12    3.20    3.40
  -1  -8  12    0.30    2.80
  -1  -8  12    3.60    2.10
  -1  -8  12    0.70    1.80
  -1  -8  12    7.00    3.40
  -1  -8  12    3.10    1.60
   1   8  12    4.60    2.30
   2  -8  12   -0.10    4.40
   2  -8  12    0.10    2.70
  -2   8  12   -0.80    1.70
   2  -8  12    0.50    2.30
  -2  -8  12   -1.10    1.80
  -2  -8  12   -0.30    1.40
  -2  -8  12   -0.90    5.00
  -2  -8  12   -1.40    4.50
   2   8  12   -0.90    1.60
   2   8  12   -1.20    1.90
  -2  -8  12    4.00    2.00
  -3   8  12    5.80    1.90
   3  -8  12    5.50    5.10
   3  -8  12    1.10    2.40
   3  -8  12    2.50    2.70
  -3   8 -12    4.60    1.90
   3   8  12    2.90    1.90
  -3  -8  12   39.30    8.40
   3   8  12    0.60    1.80
  -3  -8  12    3.20    2.10
  -3  -8  12    3.00    2.20
  -3  -8  12    5.10    2.10
   4  -8  12   10.30    4.40
  -4   8  12    7.20    2.10
   4  -8  12   10.60    2.50
   4  -8  12    5.60    3.60
   4   8  12   12.40    2.60
  -4  -8  12   17.80    3.10
  -4  -8  12    6.60    2.30
   5  -8  12   -1.60    1.20
   5  -8  12    2.00    3.40
   5   8  12    3.00    1.40
  -5   8 -12   -2.10    1.20
  -5  -8  12    0.10    1.40
  -5  -8  12   -0.70    1.40
  -6  -8 -12    6.00    1.30
  -6  -8 -12    6.20    1.30
   6  -8  12    5.30    1.40
  -6  -8  12    6.60    1.30
  -6  -8  12    8.10    1.70
  -6   8 -12   12.50    1.70
   0  -9  12   -1.20    3.90
   0  -9  12    4.30    3.70
  -1   9  12   13.80    2.40
   1  -9  12   22.70    3.80
   1  -9  12   14.40    4.00
   1  -9  12   16.60    7.00
  -1  -9  12   13.10    6.10
  -1  -9  12   16.70    4.40
  -1  -9  12    8.20    2.20
  -2   9  12    0.30    1.60
   2  -9  12    1.80    5.20
   2  -9  12    1.30    2.20
   2  -9  12    2.70    3.90
  -2  -9  12   -3.50    7.10
  -2  -9  12    3.90    7.60
  -2  -9  12    1.80    1.70
   2   9  12    5.70    1.80
  -2  -9  12    2.50    1.50
  -3   9  12   -0.90    1.30
   3  -9  12    0.10    2.80
   3  -9  12   -1.50    3.60
   3  -9  12    0.00    1.70
  -3   9 -12    1.20    1.20
   3   9  12   -0.50    2.10
  -3  -9  12   -0.50    1.30
  -3  -9  12   -1.30    1.20
  -3  -9  12    0.00    4.00
   4  -9  12    1.60    1.60
   4  -9  12   -2.50    3.60
  -4   9  12    0.50    1.30
   4   9  12    0.30    1.10
  -4  -9  12    0.30    1.20
  -4   9 -12    1.90    1.20
  -4  -9  12    0.40    2.10
   5  -9  12   -1.30    1.00
  -5  -9 -12    0.80    0.80
  -5  -9 -12   -0.10    0.70
  -5  -9  12    0.40    1.10
  -5   9 -12   -1.10    1.00
   0 -10  12    2.50    4.40
   0 -10  12    4.50    6.90
   1 -10  12    0.20    5.40
   1 -10  12    0.30    2.20
  -1 -10  12    8.10    7.10
  -1 -10  12   -2.30    4.90
   1  10  12    0.50    1.40
   2 -10  12    2.10    2.10
   2 -10  12    0.80    5.20
  -2 -10 -12    1.30    1.30
  -2 -10  12    5.20    5.10
   2  10  12    3.90    1.30
  -3 -10 -12    0.60    0.90
   3 -10  12    2.20    1.60
   3 -10  12    2.80    5.00
   3  10  12    3.40    1.00
   0 -11  12    2.60    4.50
   0 -11  12   -2.70    3.60
   1 -11  12    5.00    3.20
   1 -11  12   -3.30    4.90
  -1 -11  12    4.70    3.60
   0   0  13   -0.30    1.10
   0   0  13    0.70    1.00
   0   0  13   -1.00    0.90
   0   0  13    1.90    1.40
   0   0  13   -1.20    1.60
   1   0  13    6.30    1.60
  -1   0  13    3.70    1.60
   1   0  13    6.60    1.60
   1   0  13    2.30    1.50
  -1   0  13    6.10    2.10
   1   0  13    8.60    1.90
  -1   0  13    7.60    2.50
   1   0  13    4.10    2.80
  -1   0  13    4.70    1.80
  -2   0 -13   77.69    5.70
  -2   0  13   83.09    6.00
   2   0  13   92.29    5.80
   2   0  13   89.89    6.10
   2   0  13   88.79    5.70
   2   0  13   90.49    6.30
   2   0 -13   71.39    5.90
  -2   0  13   87.49    5.70
  -2   0  13   84.29    6.30
   2   0  13   80.19    5.60
  -2   0  13   88.09    6.00
  -2   0  13   82.79    5.90
   3   0  13   63.59    4.80
   3   0  13   68.89    5.20
   3   0  13   74.09    5.10
  -3   0 -13   75.19    5.30
  -3   0  13   68.29    5.50
   3   0  13   71.39    5.70
   3   0 -13   66.19    5.60
  -3   0  13   69.79    5.10
  -3   0  13   71.89    5.50
  -3   0  13   65.89    5.40
  -4   0  13  676.53   34.70
   4   0 -13  686.23   34.80
   4   0  13  601.94   36.90
   4   0  13  652.23   36.00
  -4   0  13  666.53   34.70
  -4   0  13  689.93   34.80
   5   0  13    2.90    1.40
  -5   0  13    0.50    1.80
   5   0  13    0.40    1.90
   5   0 -13    0.30    2.30
  -5   0  13    0.70    1.70
  -5   0  13    0.60    1.70
  -5   0  13    2.90    1.70
  -5   0 -13    0.90    1.70
   5   0  13    3.50    2.10
   6   0  13   35.20    7.20
  -6   0  13   29.80    3.80
  -6   0  13   37.40    4.60
  -6   0  13   34.70    4.20
  -6   0 -13   44.20    4.90
  -6   0 -13   41.70    5.30
   7   0  13    1.40    1.90
  -7   0 -13    1.50    1.90
  -7   0 -13   -0.20    1.80
   7   0 -13    3.00    2.30
  -7   0 -13    4.90    1.90
  -7   0  13    2.50    1.40
  -7   0  13    6.80    1.90
  -8   0 -13    0.90    1.20
  -8   0  13   -0.60    1.20
   8   0 -13    0.30    1.20
   8   0  13   -0.30    1.10
  -8   0 -13   -2.70    1.40
   0  -1 -13   36.20    3.60
   0   1  13   44.60    3.80
   0  -1  13   41.40    3.60
   0  -1  13   45.30    3.30
   0   1  13   42.60    3.90
   0   1  13   46.80    4.10
   0  -1  13   37.60    4.00
   0  -1  13   39.70    4.70
   0   1  13   47.60    3.90
   0  -1  13   42.60    3.60
  -1   1  13   30.70    3.10
  -1   1  13   32.10    3.40
  -1   1  13   23.40    3.00
   1  -1  13   31.10    3.60
  -1   1  13   28.50    3.50
   1  -1  13   32.50    3.00
  -1   1  13   31.50    3.60
   1  -1  13   27.70    3.40
   1  -1  13   38.10    4.40
  -1  -1 -13   27.60    3.80
   1   1  13   30.60    3.40
   1   1  13   27.30    3.00
   1   1  13   32.50    3.60
   1  -1 -13   31.10    3.30
   1   1  13   31.10    3.20
  -1  -1  13   29.50    3.50
  -1  -1  13   31.60    3.40
  -1  -1  13   32.00    3.40
  -1  -1  13   28.50    3.50
  -1  -1  13   28.20    2.80
   2  -1  13   -1.80    1.30
   2  -1  13    1.30    1.40
  -2   1  13   -0.30    1.40
   2  -1  13   -0.80    1.00
  -2   1  13    1.60    1.70
  -2   1  13    1.80    1.50
   2  -1  13    2.00    1.10
  -2   1  13    1.60    2.50
  -2  -1 -13    3.30    1.60
  -2   1  13    0.90    1.30
   2   1  13    1.80    1.60
  -2  -1  13    2.40    2.10
   2   1  13    1.00    1.20
   2  -1 -13    0.00    1.50
  -2  -1  13    1.20    1.50
   2   1  13    1.10    1.40
  -2  -1  13    1.00    1.50
  -2   1 -13   -1.40    1.80
  -2  -1  13    1.00    1.10
  -3   1  13   32.90    3.70
   3   1 -13   28.60    3.80
   3  -1  13   30.20    3.40
  -3   1  13   31.40    3.50
  -3   1  13   33.50    3.70
   3  -1  13   30.20    3.80
  -3   1  13   36.60    3.90
  -3  -1 -13   35.30    3.60
   3  -1  13   31.30    3.40
   3  -1  13   32.50    3.30
   3   1  13   32.60    3.80
   3   1  13   33.10    3.40
  -3  -1  13   33.70    3.10
  -3  -1  13   37.20    4.10
   3   1  13   32.90    3.40
  -3   1 -13   32.70    3.50
  -3  -1  13   31.80    3.80
  -3  -1  13   32.00    3.80
   3  -1 -13   25.40    3.80
  -3  -1  13   29.90    3.80
  -4  -1 -13   39.80    4.20
   4  -1  13   43.00    4.50
  -4   1  13   43.90    6.50
   4  -1  13   44.80    4.50
   4  -1  13   43.00    4.10
   4  -1  13   42.50    4.20
  -4   1  13   51.09    4.30
  -4   1  13   46.50    4.60
  -4   1  13   42.60    4.30
   4   1 -13   44.90    5.10
  -4  -1  13   43.00    3.80
   4   1  13   38.00    3.60
  -4  -1  13   43.00    5.00
   4   1  13   43.70    5.20
   4   1  13   41.40    4.40
  -4  -1  13   39.60    4.40
  -4  -1  13   41.30    4.60
   4  -1 -13   48.30    6.50
   5  -1  13  116.59    8.20
  -5   1  13  108.99    7.80
   5  -1  13  102.39    7.50
  -5   1  13  105.59    7.50
  -5   1  13  113.29    7.60
  -5   1  13  127.29    8.00
  -5  -1 -13  107.19    7.20
   5   1 -13  111.09    8.30
  -5  -1 -13  120.69    8.70
   5  -1  13  106.59    7.20
   5   1  13  104.89    8.00
   5  -1 -13  115.79    8.40
  -5  -1  13  108.09    7.30
  -5  -1  13  109.29    7.80
  -5  -1  13  113.79    8.10
  -5   1 -13  113.29    7.50
  -5  -1  13  111.09    8.00
  -6  -1 -13    2.50    2.00
  -6   1  13   -0.30    2.40
  -6  -1 -13    1.70    1.50
   6   1 -13    3.10    2.60
  -6  -1 -13    3.60    2.60
  -6   1  13   -2.00    1.60
   6  -1  13    0.30    2.90
  -6   1 -13    3.50    2.30
  -6  -1  13    1.10    1.90
  -6   1 -13   -4.20    2.40
   6  -1 -13    1.20    4.00
  -6  -1  13   -1.00    1.70
  -6  -1  13    0.50    2.90
  -6   1 -13    2.80    2.70
   6   1  13   -1.40    2.20
  -6  -1  13    1.70    1.50
  -7  -1 -13    3.80    2.20
   7  -1  13    3.40    2.10
  -7   1  13    2.80    1.60
  -7  -1 -13    3.10    1.90
   7   1 -13    1.10    2.00
   7  -1 -13    3.10    2.20
  -7   1 -13    4.70    1.50
   7   1  13    2.40    2.10
  -7   1 -13    5.10    2.00
  -7  -1  13    6.50    2.30
  -7  -1  13    2.00    1.90
  -7   1 -13    1.50    2.20
  -7  -1  13    2.40    1.40
  -8   1  13   -0.40    1.20
   8   1 -13   -0.20    1.40
  -8   1  13    0.60    0.70
  -8  -1 -13    0.70    1.00
   8  -1  13    0.80    1.10
   8  -1  13    0.60    0.90
  -8  -1  13   -0.30    2.30
   8  -1 -13    1.00    1.20
  -8   1 -13    0.90    1.60
   8   1  13   -0.10    1.10
  -8  -1  13    0.70    1.10
   0  -2  13   12.00    2.20
   0  -2  13   14.30    2.40
   0  -2  13    8.80    1.80
   0  -2  13   10.90    2.20
   0  -2  13    6.50    1.50
   0  -2 -13    8.90    2.00
   0   2  13   10.20    2.30
   0   2  13    9.20    2.00
  -1   2  13    4.40    1.80
   1  -2  13    9.00    2.00
   1  -2  13    1.80    1.40
  -1   2  13   10.00    2.00
   1  -2  13    6.40    1.60
  -1  -2 -13    5.10    1.90
   1  -2  13    5.50    1.90
   1  -2  13    5.70    1.70
  -1   2  13    5.00    1.70
  -1  -2  13    4.60    1.60
   1   2  13    6.60    1.90
   1   2  13    7.30    2.20
  -1  -2  13    6.30    1.90
  -1  -2  13    4.30    1.90
  -1  -2  13    8.10    1.60
   1  -2 -13    5.90    2.00
   1   2  13    3.70    1.60
  -1  -2  13    6.50    2.40
  -2  -2 -13   31.70    3.40
  -2   2  13   29.70    3.20
   2  -2  13   33.10    3.50
  -2   2  13   27.40    3.40
  -2   2  13   30.70    3.90
   2  -2  13   29.00    3.20
   2  -2  13   27.40    3.60
  -2   2  13   30.60    3.50
   2  -2  13   31.00    2.90
   2  -2  13   27.60    2.70
  -2  -2  13   34.30    3.50
  -2  -2  13   30.40    3.80
  -2   2 -13   29.10    3.50
  -2  -2  13   32.30    3.60
   2   2  13   35.40    3.50
  -2  -2  13   34.20    4.20
  -2  -2  13   28.10    3.80
   2   2  13   29.20    3.50
   2   2  13   32.80    3.70
  -2  -2  13   31.70    3.30
   2  -2 -13   26.50    3.60
  -3   2  13   58.09    4.90
   3  -2  13   56.39    5.60
  -3  -2 -13   63.19    6.10
  -3   2  13   59.09    5.40
   3  -2  13   56.29    4.70
  -3   2  13   55.99    4.70
   3  -2  13   61.69    5.00
  -3   2  13   54.09    4.90
   3  -2  13   59.39    4.50
   3  -2  13   45.60    4.30
   3   2  13   48.60    5.70
  -3   2 -13   54.39    4.60
  -3  -2  13   60.79    5.00
  -3  -2  13   49.30    3.80
  -3  -2  13   56.49    5.20
   3   2  13   55.79    4.80
  -3  -2  13   56.39    6.10
  -3  -2  13   52.49    5.30
   3  -2 -13   56.19    5.20
   3   2  13   52.79    4.80
   4  -2  13   28.50    4.10
  -4   2  13   16.40    2.60
   4  -2  13   18.60    3.30
  -4  -2 -13   20.90    2.80
   4  -2  13   23.10    3.20
   4  -2  13   23.40    3.50
  -4   2  13   19.00    3.00
  -4   2  13   20.10    3.20
   4   2 -13   14.30    3.10
  -4   2 -13   21.20    3.10
   4  -2 -13   19.90    3.40
  -4  -2  13   18.00    3.20
  -4  -2  13   24.90    3.80
   4   2  13   23.50    3.50
  -4  -2  13   19.50    3.50
  -4  -2  13   16.50    2.20
  -4  -2  13   23.70    3.90
   5  -2  13   89.19    6.40
   5  -2  13   73.49    6.10
  -5  -2 -13   76.29    5.50
  -5   2  13   74.29    6.10
  -5  -2 -13   75.89    6.70
   5   2 -13   66.19    6.30
   5  -2  13   77.99    5.80
  -5   2  13   83.69    6.40
  -5  -2  13   78.79    6.60
   5  -2 -13   83.49    6.90
  -5   2 -13   76.19    7.20
  -5   2 -13   77.99    6.00
  -5  -2  13   65.29    5.90
  -5  -2  13   82.09    6.50
   5   2  13   71.09    6.20
  -5  -2  13   72.99    6.30
  -5  -2  13   74.89    5.10
   6  -2  13   45.30    3.90
  -6  -2 -13   40.90    3.40
   6   2 -13   40.50    5.20
  -6  -2 -13   33.20    5.50
  -6   2  13   40.90    4.50
   6  -2  13   50.39    4.90
  -6   2 -13   47.00    4.40
  -6  -2  13   39.60    4.70
  -6  -2  13   41.60    4.40
   6   2  13   42.80    4.80
  -6  -2  13   50.49    4.80
  -6  -2  13   41.70    3.20
  -6   2 -13   47.50    5.50
   6  -2 -13   48.70    5.10
   7   2 -13    0.40    1.90
   7  -2  13   -0.20    1.50
  -7   2  13    1.60    1.40
  -7  -2 -13    1.60    1.90
  -7  -2 -13   -0.10    1.70
   7  -2 -13    0.20    1.70
  -7  -2  13    0.50    1.60
   7   2  13   -0.10    1.90
  -7  -2  13    0.70    1.70
  -7  -2  13    0.50    1.40
  -7   2 -13    0.50    1.40
  -7   2 -13    0.90    2.00
  -8   2  13    1.50    1.10
  -8  -2 -13    1.80    1.10
   8  -2  13   -0.40    0.80
   8   2 -13    0.60    1.40
   8  -2  13    2.50    1.00
  -8   2  13    0.20    0.80
  -8   2 -13    1.50    1.60
  -8  -2  13    0.80    1.30
  -8  -2  13    1.30    1.10
   0   3  13   43.50    4.00
   0  -3  13   38.20    4.00
   0  -3 -13   43.20    3.80
   0  -3  13   41.60    3.90
   0  -3  13   38.10    4.30
   0  -3  13   38.60    4.20
   0  -3  13   44.00    3.80
   0  -3  13   41.40    4.20
   0   3  13   38.20    4.10
   1  -3  13   80.59    5.00
   1  -3  13   79.29    6.10
   1  -3  13   81.69    6.20
   1  -3  13   82.69    5.40
  -1  -3 -13   77.69    5.60
   1  -3  13   89.39    6.00
  -1   3  13   89.99    6.20
  -1   3  13   84.19    6.10
   1  -3  13   82.09    5.80
  -1  -3  13   84.09    6.10
  -1  -3  13   82.09    6.20
  -1  -3  13   76.59    6.30
   1  -3 -13   79.39    5.80
   1   3  13   73.39    6.20
  -1  -3  13   80.39    5.80
   1   3  13   75.29    5.80
   1   3  13   89.49    6.30
  -1  -3  13   83.69    6.30
  -1  -3  13   85.99    6.80
   1   3  13   78.69    5.90
   2  -3  13   92.59    6.70
  -2   3  13   89.39    6.30
   2  -3  13   89.79    5.60
   2  -3  13   80.59    6.00
  -2  -3 -13   88.59    5.90
  -2   3  13   91.09    6.40
  -2   3  13   67.79    5.60
   2  -3  13   84.69    6.40
  -2   3  13   94.09    6.50
   2  -3  13   89.09    6.20
  -2  -3  13   88.99    6.40
   2   3  13   83.59    5.60
   2   3  13   83.99    6.20
  -2  -3  13   83.19    6.20
   2  -3 -13   92.59    6.50
  -2  -3  13   91.69    6.70
   2   3  13   90.79    6.10
  -2  -3  13   86.69    6.70
  -2  -3  13   83.99    6.40
  -3   3  13    2.60    1.80
   3  -3  13    2.40    1.90
  -3   3  13    9.70    2.30
   3  -3  13    5.60    1.90
   3  -3  13    3.00    2.40
  -3  -3 -13    5.80    1.70
  -3   3  13    5.90    2.30
   3  -3  13    4.30    2.50
   3  -3  13    4.30    2.40
  -3   3 -13    2.70    2.00
   3   3  13    5.50    2.80
  -3  -3  13    4.00    1.90
  -3  -3  13    4.90    2.30
  -3  -3  13    7.60    2.40
  -3  -3  13    5.10    2.40
   3   3  13    4.40    1.70
   3   3  13    3.50    1.90
   3  -3 -13    6.10    2.10
   4  -3  13   97.19    7.90
  -4   3  13  108.49    7.60
  -4   3  13  103.99    7.60
   4  -3  13  105.99    7.60
  -4  -3 -13  107.89    6.70
   4  -3  13  104.99    7.50
   4  -3  13  105.29    7.20
  -4  -3  13   97.69    7.40
  -4  -3  13   97.59    7.70
   4   3  13  102.39    7.40
   4   3  13   84.49    6.30
  -4  -3  13  103.69    7.50
  -4   3 -13  101.39    7.10
   4  -3 -13  102.09    7.50
  -4  -3  13  107.19    8.00
  -5   3  13   14.00    3.00
   5  -3  13    9.20    3.80
   5  -3  13    8.40    2.50
  -5  -3 -13    3.70    2.70
   5  -3  13    8.00    2.00
  -5   3  13   16.10    3.10
  -5   3 -13   12.40    3.30
   5   3  13    5.10    2.50
  -5  -3  13    9.20    2.90
  -5  -3  13    7.40    2.70
  -5  -3  13    6.60    2.60
   5  -3 -13    7.30    2.70
  -5   3 -13    8.70    2.50
  -6  -3 -13   13.40    2.80
  -6   3  13   14.10    2.80
   6  -3  13    7.10    2.20
   6  -3  13   11.10    2.20
   6   3 -13    8.50    2.60
  -6  -3  13    7.90    2.30
   6   3  13    8.60    2.70
   6  -3 -13    8.20    2.40
  -6  -3  13    7.70    2.30
  -6   3 -13   11.50    2.40
  -6  -3  13    8.90    2.50
  -7  -3 -13    0.90    1.50
  -7   3  13    1.00    1.60
   7  -3  13    0.40    1.50
   7  -3  13    1.70    1.70
   7   3 -13    2.80    1.90
  -7   3 -13    0.90    1.90
   7  -3 -13    1.10    1.40
  -7  -3  13    0.50    1.40
  -7  -3  13    0.40    2.00
  -7  -3  13   -0.30    1.50
   7   3  13   -0.50    1.50
  -7   3 -13    0.00    1.40
  -8   3  13    2.10    0.90
  -8   3  13    3.60    1.00
   8  -3  13    2.80    0.90
  -8  -3 -13    3.90    1.20
   8   3 -13    6.60    1.50
   8   3  13    2.00    0.90
  -8   3 -13    4.60    1.70
  -8  -3  13    4.40    1.30
  -8  -3  13    3.60    1.00
   0  -4  13   93.49    6.60
   0  -4  13   90.99    6.50
   0  -4  13  103.79    7.40
   0  -4  13   86.79    6.70
   0  -4  13   94.69    6.80
   0  -4  13   95.19    7.00
   0   4  13   96.29    6.80
   0  -4 -13   95.19    6.30
   1  -4  13   14.60    3.20
   1  -4  13   11.30    2.30
   1   4 -13   15.90    2.60
   1  -4  13    6.00    3.20
  -1  -4 -13   15.80    2.40
  -1   4  13   13.50    2.70
  -1   4  13    9.10    2.20
   1  -4  13   20.70    3.70
   1  -4  13    7.70    2.10
   1  -4  13   17.60    2.50
   1   4  13   15.30    2.70
  -1  -4  13   13.10    2.60
  -1  -4  13   17.00    2.90
  -1  -4  13   13.70    2.70
   1  -4 -13   11.80    2.30
  -1  -4  13   17.90    3.00
  -1  -4  13   11.10    2.70
  -1  -4  13   15.90    3.10
   1   4  13   16.20    2.20
  -2   4  13    9.60    2.50
   2  -4  13   15.10    3.50
  -2   4  13   12.70    2.70
  -2   4  13   14.90    2.50
   2  -4  13   13.20    2.50
   2  -4  13   10.30    2.60
   2  -4  13   10.10    1.80
   2   4 -13   10.30    2.80
   2  -4  13   15.80    2.90
   2  -4  13   13.60    3.10
  -2  -4 -13   10.00    2.00
  -2  -4  13   13.90    3.00
   2   4  13   11.70    2.50
   2   4  13   13.50    3.90
  -2  -4  13   15.30    3.20
   2  -4 -13   10.00    2.30
  -2  -4  13   12.80    2.60
  -2  -4  13   10.20    2.60
   2   4  13   11.30    2.50
  -2  -4  13   11.90    3.10
   3  -4  13    1.50    2.30
   3  -4  13    2.50    2.50
  -3   4  13    1.30    1.40
  -3  -4 -13    2.00    1.40
   3  -4  13    1.90    2.10
  -3   4  13    0.60    1.70
  -3   4  13    0.30    1.60
  -3  -4  13    5.40    2.20
  -3  -4  13    1.50    2.20
   3  -4 -13    5.20    2.30
   3   4  13    1.30    1.80
   3   4  13    4.00    1.90
  -3  -4  13    1.70    1.80
  -3  -4  13    3.30    2.10
  -3   4 -13    2.50    1.70
   4  -4  13   79.09    6.50
  -4  -4 -13   78.29    5.20
   4  -4  13   78.39    7.20
   4  -4  13   86.69    5.90
   4  -4  13   88.59    7.00
  -4   4  13   86.39    6.90
  -4   4  13   87.39    6.40
   4   4  13   84.29    6.60
   4  -4 -13   90.69    6.50
  -4  -4  13   85.99    7.00
   4   4  13   78.29    5.70
  -4  -4  13   78.89    6.40
  -4  -4  13   77.49    6.90
  -4   4 -13   79.79    6.20
   5  -4  13   25.30    4.30
   5  -4  13   20.30    3.80
  -5   4  13   34.10    4.20
   5  -4  13   16.70    2.90
   5   4 -13   25.40    3.50
   5  -4 -13   24.50    4.20
  -5  -4  13   27.80    4.00
  -5  -4  13   28.60    3.80
  -5  -4  13   31.30    4.00
  -5  -4  13   34.80    4.50
  -5   4 -13   32.90    5.20
   5   4  13   26.90    5.70
  -5   4 -13   31.10    4.10
   6  -4  13    3.20    1.80
   6  -4  13    6.00    2.70
   6  -4  13    3.30    1.60
   6  -4  13    4.30    2.00
   6   4 -13    4.50    2.20
  -6   4  13    3.50    2.00
  -6   4 -13    4.10    1.80
  -6  -4  13    5.70    2.20
   6  -4 -13    6.30    1.70
  -6  -4  13    2.00    1.60
   6   4  13    3.80    2.00
  -6  -4  13    4.60    2.10
  -6   4 -13    4.90    2.60
  -7  -4 -13    7.20    1.70
   7   4 -13    4.40    1.80
   7  -4  13    6.20    1.50
   7  -4  13   11.80    2.20
  -7   4  13    4.20    1.60
  -7  -4  13   10.50    1.80
   7   4  13    5.00    1.60
  -7   4 -13    8.90    1.60
  -7  -4  13   10.50    2.30
  -7   4 -13    9.70    2.80
  -7  -4  13    7.80    1.80
   0  -5  13  338.47   18.10
   0  -5 -13  317.67   17.10
   0  -5  13  318.97   17.80
   0   5  13  324.77   18.10
   0  -5  13  328.17   17.50
   0  -5  13  308.87   18.70
   0  -5  13  323.97   18.10
   0  -5  13  305.17   17.80
  -1   5  13   13.50    2.80
   1  -5  13   19.10    4.30
   1  -5  13   10.30    2.30
   1  -5  13   16.80    4.00
   1  -5  13    7.80    1.90
   1  -5  13   13.90    3.10
   1  -5  13   13.70    3.40
  -1  -5 -13   14.50    2.20
  -1  -5  13   11.70    2.40
  -1  -5  13   12.50    2.90
  -1  -5  13   11.60    3.70
   1  -5 -13   16.40    2.60
  -1  -5  13   16.10    3.60
  -1  -5  13   11.80    2.90
   1   5  13   15.30    2.90
   2  -5  13  100.29    7.80
  -2   5  13  112.19    7.80
  -2   5  13  108.69    7.30
  -2  -5 -13  106.19    6.50
   2  -5  13  104.39    8.00
   2  -5  13  112.39    8.10
   2  -5  13  111.59    7.60
  -2  -5  13  102.69    7.40
   2   5  13  107.09    7.60
   2  -5 -13  110.19    7.00
  -2  -5  13  106.49    7.50
  -2  -5  13  103.19    7.90
   2   5  13  110.19    7.10
  -2  -5  13   85.09    7.30
  -2  -5  13  104.59    8.00
  -3   5  13    6.80    2.50
   3  -5  13    8.90    3.10
  -3   5  13    5.30    2.20
   3  -5  13    5.80    2.50
   3  -5  13   11.30    3.50
   3  -5  13    8.80    3.40
   3   5  13    9.20    2.60
  -3  -5  13    4.30    2.30
  -3  -5  13    8.20    2.40
   3  -5 -13    5.50    1.90
  -3  -5  13    6.10    2.50
  -3  -5  13    3.30    2.20
   3   5  13   10.60    2.20
  -3   5 -13   14.50    2.80
   4  -5  13    0.80    1.30
  -4   5  13    5.90    2.60
   4  -5  13    0.60    1.70
   4  -5  13    2.10    3.70
   4  -5  13    1.60    4.60
  -4  -5  13   -0.30    1.60
   4   5  13   -1.30    1.70
  -4   5 -13    2.40    2.60
  -4  -5  13   -0.30    2.10
  -4  -5  13    2.30    2.30
   4  -5 -13    0.80    2.10
  -4   5 -13    0.90    2.50
  -4  -5  13    2.60    2.70
   4   5  13    1.60    2.10
   5  -5  13    4.20    2.20
  -5   5  13    3.80    2.30
   5   5 -13    0.70    2.10
   5  -5  13    3.00    1.50
   5  -5  13    6.10    2.60
   5  -5  13    4.20    2.90
  -5  -5  13    6.20    2.50
  -5  -5  13    3.60    2.10
   5   5  13    3.50    1.60
  -5  -5  13    4.50    1.90
  -5   5 -13    4.20    2.80
  -5  -5  13    6.00    2.10
   5   5  13    5.00    2.00
   5  -5 -13    3.50    1.40
  -5   5 -13    7.60    2.20
   6   5 -13    3.10    1.90
  -6   5  13   -0.60    1.40
   6  -5  13    3.90    1.30
   6  -5  13    0.60    1.50
   6  -5  13   -0.40    1.60
  -6   5 -13    0.30    1.00
  -6  -5  13   -0.70    1.40
   6   5  13    3.80    2.00
  -6  -5  13    1.50    1.70
  -6   5 -13    1.60    2.00
  -6  -5  13    0.80    1.70
   7  -5  13    4.80    1.90
  -7   5  13    8.20    1.70
  -7  -5 -13    5.40    1.60
   7   5 -13    5.40    1.60
  -7   5  13    5.30    1.50
  -7  -5  13    7.80    1.80
  -7   5 -13    6.40    1.20
   7   5  13    4.10    1.60
  -7   5 -13    6.70    2.00
  -7  -5  13    8.00    1.70
  -7  -5  13    7.70    1.90
   0  -6  13    2.00    2.00
   0  -6  13   -1.00    1.70
   0  -6 -13    0.70    1.70
   0  -6  13    2.60    1.90
   0  -6  13   -1.50    2.20
   0  -6  13    1.20    2.40
   0  -6  13    0.60    1.60
   0   6  13   -0.90    1.50
  -1   6  13   36.10    4.20
   1  -6  13   28.40    4.40
   1  -6  13   31.80    4.20
   1  -6  13   33.80    4.00
   1  -6  13   31.70    4.50
  -1  -6  13   34.20    4.40
  -1  -6  13   34.40    3.90
   1   6  13   27.90    4.00
  -1  -6  13   33.20    4.00
   1  -6 -13   24.90    2.90
  -1  -6  13   27.50    3.90
  -1  -6  13   21.50    3.30
  -1  -6  13   23.50    4.00
   2  -6  13   27.90    4.30
  -2   6  13   28.90    4.00
  -2   6  13   25.10    3.60
   2  -6  13   22.70    4.10
   2  -6  13   17.70    3.20
   2  -6  13   26.70    4.10
  -2  -6  13   25.30    3.80
   2   6  13   29.60    3.70
   2  -6 -13   21.10    2.60
  -2  -6  13   27.30    4.50
  -2  -6  13   28.10    4.10
  -2  -6  13   23.90    3.60
   2   6  13   28.10    4.10
  -2  -6  13   23.50    3.70
  -2  -6  13   25.70    3.40
  -3   6  13    7.20    2.50
   3  -6  13    3.80    3.30
   3  -6  13    5.10    2.60
   3  -6  13    5.90    3.40
  -3   6  13    3.50    2.50
   3  -6  13    1.30    4.70
   3   6  13    2.00    3.10
  -3   6 -13    8.30    2.60
  -3  -6  13    5.00    2.30
  -3  -6  13   -1.40    3.40
  -3  -6  13    2.10    2.70
   4  -6  13   25.40    5.60
   4  -6  13   26.70    4.30
   4  -6  13   25.70    4.20
   4  -6  13   26.90    3.20
  -4   6  13   35.40    4.10
  -4   6 -13   27.00    3.50
  -4  -6  13   26.60    3.30
   4   6  13   22.30    3.30
  -4   6 -13   45.20    6.60
   4   6  13   29.00    3.50
  -4  -6  13   33.40    4.20
  -4  -6  13   16.60    3.40
   5  -6  13    7.80    2.50
  -5   6  13    6.30    2.30
   5  -6  13   10.60    3.00
   5  -6  13    8.50    2.40
   5   6  13   11.30    3.00
  -5   6 -13    3.40    1.90
  -5  -6  13   11.70    2.70
  -5  -6  13    9.90    2.20
  -5  -6  13    7.70    2.60
   5   6  13    8.70    2.90
  -5   6 -13    7.60    2.00
   6   6 -13    7.00    1.90
   6  -6  13    5.90    2.00
  -6   6  13    3.10    1.60
  -6   6 -13   12.70    2.50
  -6  -6  13    9.60    2.10
  -6  -6  13   12.70    2.40
  -6  -6  13    8.60    1.50
   6   6  13    4.80    1.90
  -7  -6 -13    0.70    0.80
  -7  -6 -13    0.50    0.90
  -7   6  13    0.60    0.70
  -7  -6  13   -0.50    1.00
  -7   6 -13    0.00    0.90
  -7  -6  13   -2.50    1.10
   0  -7  13    9.10    2.40
   0  -7  13    6.50    3.00
   0  -7  13    9.70    3.30
   0  -7  13    7.70    2.40
   0  -7  13    6.10    3.00
   0   7  13    7.80    2.30
   1  -7  13  108.09    9.90
  -1   7  13   93.89    9.60
   1  -7  13  119.29    9.90
   1  -7  13  109.99    9.30
   1  -7  13  104.59    8.10
  -1  -7  13  106.99    7.30
   1   7  13  113.59    8.50
  -1  -7  13  107.89    9.50
  -1  -7  13   98.69    8.90
  -1  -7  13  103.99    8.90
  -2   7  13   36.90    4.80
  -2   7  13   46.60    4.80
   2  -7  13   42.80    5.50
   2  -7  13   39.40    5.40
   2  -7  13   34.30    4.60
   2  -7  13   40.70    5.10
  -2  -7  13   37.50    4.50
  -2  -7  13   37.00    4.20
   2   7  13   37.50    4.90
  -2  -7  13   42.80    7.70
  -2  -7  13   44.80    5.00
  -2  -7  13   43.90    4.80
  -2  -7  13   28.60    7.20
   3  -7  13   16.00    2.30
   3  -7  13   27.30    4.30
  -3   7  13   14.60    2.90
   3  -7  13   21.30    4.00
   3  -7  13   24.10    5.40
   3   7  13   13.80    2.90
  -3   7 -13   14.10    2.50
  -3  -7  13   22.40    3.00
  -3   7 -13   19.50    3.10
  -3  -7  13   21.10    3.30
   3   7  13   20.80    2.80
  -3  -7  13   19.00    3.20
  -3  -7  13   15.50    4.20
   4  -7  13    4.10    4.50
  -4   7  13    2.30    1.90
   4  -7  13    5.60    2.60
   4  -7  13    3.10    2.20
  -4  -7  13    2.40    2.00
   4   7  13    0.80    2.10
   4   7  13    2.20    1.70
  -4  -7  13    2.80    2.30
  -4   7 -13    0.20    1.20
  -4  -7  13    1.00    1.70
  -4   7 -13    5.90    2.80
   5  -7  13   -0.80    2.50
   5  -7  13    3.50    2.40
  -5   7  13    2.80    1.70
   5  -7  13    0.00    2.10
   5   7  13   -0.80    1.50
  -5  -7  13    3.40    1.70
  -5  -7  13    0.60    1.60
   5   7  13   -1.60    1.70
  -5  -7  13    0.10    1.80
  -5   7 -13    0.60    1.00
  -6  -7 -13    1.80    1.20
  -6  -7  13    3.90    1.80
  -6  -7  13    2.20    1.30
  -6   7 -13    3.20    1.30
   0   8  13   44.70    4.20
   0  -8  13   37.90    4.30
   0  -8  13   36.00    5.20
   0  -8  13   28.30    3.60
   0  -8  13   27.80    4.30
   1  -8  13    0.00    1.30
   1  -8  13    5.20    3.40
   1  -8  13    6.50    2.70
   1  -8  13    3.30    3.00
  -1   8  13    1.40    2.00
   1   8  13    5.20    2.20
  -1  -8  13    0.90    1.60
  -1  -8  13    3.90    3.30
  -1  -8  13    2.50    1.80
  -1  -8  13    3.70    3.10
  -1  -8  13    4.90    2.20
  -2   8  13    9.30    2.60
   2  -8  13    8.70    2.60
   2  -8  13    5.50    4.70
   2  -8  13    5.60    3.00
  -2  -8  13    6.70    2.30
  -2  -8  13   12.50    5.30
  -2  -8  13    6.30    1.90
  -2  -8  13    8.60    5.10
   2   8  13    7.00    2.80
   2   8  13   10.30    2.30
  -2  -8  13    7.30    2.10
   3  -8  13   14.50    3.10
  -3   8  13   10.80    2.90
   3  -8  13    4.30    2.70
   3  -8  13   17.40    5.40
  -3  -8  13   11.50    2.50
  -3  -8  13   11.50    2.50
  -3  -8  13   11.30    2.20
  -3   8 -13    9.80    1.60
   3   8  13   16.10    2.30
   3   8  13    8.60    2.50
  -4   8  13    2.50    1.40
   4  -8  13    1.30    2.00
   4  -8  13    2.20    2.90
   4  -8  13    3.50    2.50
   4   8  13    3.60    1.50
  -4   8 -13    2.60    1.00
  -4  -8  13    1.80    1.50
  -4  -8  13    1.70    1.60
   5  -8  13    0.00    1.20
   5  -8  13    3.30    2.90
  -5   8  13    0.90    1.00
  -5   8 -13   -0.10    1.20
  -5  -8  13    0.50    1.40
  -5  -8  13    0.50    1.10
   0  -9  13   11.00    3.20
   0   9  13    8.80    2.00
   0  -9  13    0.60    3.80
   0  -9  13    5.20    3.90
   1  -9  13    4.80    2.60
  -1   9  13    1.30    1.50
   1  -9  13    1.80    3.20
   1  -9  13   -0.50    4.60
   1   9  13    5.60    1.80
  -1  -9  13    3.80    4.60
  -1  -9  13    6.00    8.10
  -1  -9  13    6.50    2.60
  -2   9  13   -0.10    1.20
   2  -9  13    2.80    2.60
   2  -9  13    4.10    4.20
   2  -9  13    2.10    3.40
  -2  -9  13    3.40    5.90
  -2  -9  13    0.90    7.70
   2   9  13    4.00    1.90
  -2  -9  13    1.90    1.40
  -2  -9  13    1.40    1.50
   3  -9  13   -1.90    3.00
   3  -9  13   -2.70    2.20
   3  -9  13    0.50    1.70
  -3   9  13   -0.90    1.10
  -3   9 -13   -0.40    1.40
   3   9  13    0.10    1.20
  -3  -9  13   -0.60    1.10
  -3  -9  13    1.00    1.40
   4  -9  13    1.80    1.40
  -4   9  13    2.20    1.20
   4  -9  13   -0.30    3.70
  -4   9 -13    4.10    1.50
   0  10  13    2.00    1.20
   0 -10  13   -1.10    6.20
   0 -10  13   -1.20    3.20
   1 -10  13    0.70    2.40
   1 -10  13    2.10    5.20
  -1 -10  13    5.40    4.60
  -1 -10  13    3.40    6.00
   1  10  13   -0.70    1.40
   2 -10  13    0.90    5.20
   2 -10  13    3.40    1.90
  -2 -10  13   -0.30    5.20
   2  10  13    0.70    1.10
   3 -10  13    3.20    1.60
   3 -10  13   -1.20    4.40
   0   0  14  249.48   13.90
   0   0  14  230.68   13.30
   0   0  14  248.98   13.40
   0   0  14  242.28   13.80
   0   0  14  268.17   13.80
   0   0 -14  220.18   13.40
   1   0  14   19.90    3.00
  -1   0  14   22.80    2.80
  -1   0  14   18.10    2.80
   1   0  14   18.10    2.50
   1   0  14   21.60    3.00
  -1   0  14   20.90    2.70
  -1   0 -14   12.30    2.40
   1   0 -14   15.20    2.50
   1   0  14   19.00    2.80
  -1   0  14   25.50    3.60
   1   0  14   21.00    2.40
  -1   0  14   25.80    5.00
  -2   0  14   11.50    2.60
   2   0  14   12.20    2.20
   2   0 -14    5.10    2.00
   2   0  14   10.50    2.30
   2   0  14   10.00    1.90
  -2   0  14   13.00    2.20
   2   0  14   12.50    2.50
   2   0  14   12.10    2.10
  -2   0  14    9.50    2.20
  -2   0 -14    9.80    2.10
  -2   0  14   14.80    2.70
  -2   0  14   11.40    2.30
  -3   0  14   25.10    4.90
   3   0  14   24.50    3.20
  -3   0  14   15.40    3.70
   3   0  14   24.30    2.90
  -3   0 -14   15.40    3.70
  -3   0  14   30.90    3.70
   3   0  14   20.90    3.00
  -3   0  14   16.50    2.80
   3   0 -14   23.20    3.10
   3   0  14   27.50    3.10
  -4   0 -14  217.88   12.60
   4   0  14  225.78   13.10
   4   0 -14  214.58   13.10
  -4   0  14  219.08   13.10
   4   0  14  216.48   13.90
  -4   0  14  226.98   13.20
   4   0  14  203.68   13.00
  -4   0  14  229.48   12.80
   5   0  14    9.80    2.90
  -5   0 -14    7.90    2.30
  -5   0  14    9.40    2.10
   5   0  14    5.30    1.70
   5   0 -14    5.70    2.70
  -5   0  14    7.50    2.50
   5   0  14    4.40    2.20
  -5   0 -14    4.70    1.90
  -5   0  14    9.30    2.40
  -5   0  14    5.60    2.20
  -6   0 -14    8.70    2.00
  -6   0 -14    7.40    2.90
   6   0 -14    6.10    2.70
  -6   0  14    5.30    2.10
  -6   0  14    5.00    1.70
   6   0  14    6.50    2.50
  -6   0 -14    8.70    2.70
  -6   0  14    4.70    1.90
   7   0  14    0.50    1.70
  -7   0  14    0.70    1.60
   7   0 -14   -0.40    1.90
  -7   0 -14    0.40    2.00
  -7   0 -14   -2.50    1.30
  -7   0  14    3.20    1.50
  -7   0  14    0.70    1.10
  -7   0 -14    1.80    1.10
   8   0  14    0.80    0.90
  -8   0  14   -0.60    0.90
   8   0  14    0.40    0.80
   8   0 -14    0.50    1.30
   0   1  14    0.30    1.30
   0  -1  14    0.30    1.30
   0  -1  14    1.10    0.90
   0  -1 -14   -0.40    1.30
   0  -1  14   -1.40    1.00
   0  -1  14   -1.30    1.60
   0   1  14   -1.30    1.20
   0   1  14    0.10    1.30
   0   1  14    0.40    1.30
   0  -1  14    1.30    1.30
   0   1  14    0.00    1.00
   1  -1  14    1.00    1.10
  -1  -1 -14    0.20    1.50
  -1   1  14   -1.80    1.50
   1  -1  14   -1.00    0.90
  -1   1  14    0.80    1.10
  -1   1  14    1.30    1.50
  -1   1  14   -1.80    1.40
  -1   1  14    0.30    1.30
   1  -1  14   -0.60    1.20
   1  -1  14   -0.80    1.40
   1  -1  14    0.10    1.00
  -1  -1  14   -0.90    0.80
   1   1  14    1.30    1.50
   1   1  14   -0.10    1.30
  -1  -1  14    1.20    1.30
  -1   1 -14   -0.90    1.60
   1   1  14    0.30    1.30
  -1  -1  14    1.30    2.30
   1   1  14   -0.30    1.00
   1  -1 -14   -1.30    1.50
  -1  -1  14    0.30    1.40
  -1  -1  14    3.20    1.70
   1   1  14   -0.20    1.00
  -2  -1 -14    2.50    1.50
  -2   1  14    6.10    1.80
  -2   1  14    2.50    1.70
   2  -1  14    4.40    1.70
   2   1 -14    2.20    2.20
  -2   1  14    2.70    1.50
   2  -1  14    3.20    1.60
  -2   1  14    5.50    1.70
   2  -1  14    0.40    1.60
  -2   1  14    3.30    2.20
   2  -1  14    3.00    1.80
   2  -1  14    5.00    2.10
  -2   1 -14    5.10    1.80
  -2  -1  14    1.80    1.60
   2  -1 -14    4.90    1.90
  -2  -1  14    5.40    2.20
   2   1  14    4.50    1.90
  -2  -1  14    2.90    1.20
   2   1  14    4.30    2.00
  -2  -1  14    1.90    1.70
   2   1  14    1.80    1.80
  -2  -1  14    4.50    1.70
   2   1  14    3.00    1.60
  -3   1  14   92.89    7.10
  -3   1  14  107.99    7.40
   3  -1  14   98.09    6.90
   3  -1  14   98.99    7.40
   3  -1  14  104.19    7.10
   3   1 -14   93.89    7.30
  -3   1  14  106.79    7.20
   3  -1  14  102.39    6.90
  -3  -1 -14  108.79    7.00
  -3   1  14  105.29    7.70
  -3   1 -14  117.09    8.10
  -3  -1  14  109.49    8.30
   3   1  14  103.19    6.70
   3   1  14  110.79    7.10
  -3  -1  14  106.59    7.70
  -3  -1  14  106.29    7.40
   3   1  14  114.79    7.00
  -3  -1  14  107.29    6.70
   3   1  14  111.39    7.50
  -3  -1  14  104.39    7.30
  -4   1  14   33.80    3.80
   4   1 -14   27.30    3.80
  -4   1  14   33.80    4.00
   4  -1  14   28.90    3.50
  -4   1  14   26.60    4.60
   4  -1  14   35.90    4.10
  -4   1  14   29.00    3.80
   4  -1  14   31.20    4.00
   4  -1  14   33.30    3.90
  -4  -1 -14   36.60    3.80
  -4   1 -14   33.00    3.80
   4  -1 -14   28.20    4.00
  -4  -1  14   38.60    4.50
   4   1  14   30.20    3.90
   4   1  14   28.10    3.10
  -4  -1  14   25.80    3.10
  -4  -1  14   30.50    4.00
   4   1  14   30.30    3.80
  -4  -1  14   33.50    4.30
  -4  -1  14   31.80    4.00
  -5  -1 -14    9.00    3.10
  -5  -1 -14    7.20    2.00
  -5   1  14    5.40    2.20
   5  -1  14    6.00    1.60
  -5   1  14    5.90    2.40
  -5   1  14    4.70    2.10
  -5   1  14    5.90    2.00
   5   1 -14    8.80    2.90
   5  -1  14    4.70    2.40
   5  -1  14    5.20    2.30
   5   1  14    4.40    2.00
   5   1  14    3.80    2.30
  -5   1 -14    6.60    2.20
  -5  -1  14    3.80    2.30
  -5  -1  14    3.90    1.60
  -5  -1  14    7.90    2.30
   5  -1 -14    3.70    2.50
  -5  -1  14    5.70    2.30
  -6  -1 -14    6.80    1.70
   6   1 -14    2.30    2.40
  -6  -1 -14    9.90    3.20
  -6   1  14    4.20    1.80
  -6  -1 -14    7.70    2.80
  -6   1  14    6.20    2.00
   6  -1  14    4.20    2.10
  -6  -1  14    1.90    1.30
   6   1  14    5.00    2.30
  -6  -1  14    6.50    2.20
  -6   1 -14    6.30    2.00
  -6   1 -14    7.70    2.80
  -6  -1  14    9.40    2.60
  -6  -1  14    3.40    2.10
   6  -1 -14    2.10    2.40
  -7   1  14   -0.90    1.90
  -7  -1 -14   -1.50    1.80
  -7  -1 -14    1.90    1.50
  -7   1  14    0.20    1.80
   7  -1  14    0.30    1.50
  -7  -1  14   -0.90    1.40
   7  -1 -14   -0.20    1.80
   7   1  14    1.70    2.30
  -7  -1  14    1.00    0.80
  -7   1 -14   -0.40    2.00
  -7  -1  14    0.20    1.70
  -7   1 -14   -0.80    1.20
   8   1 -14    2.50    1.30
  -8  -1 -14    1.60    1.60
   8  -1  14    2.30    1.00
   8  -1  14    0.80    0.80
  -8   1  14    3.60    1.30
   8  -1 -14    2.30    1.00
   8   1  14    1.00    1.00
  -8  -1  14    3.80    1.50
  -8   1 -14    1.50    1.60
   0   2  14   35.10    4.20
   0  -2  14   31.90    3.60
   0  -2 -14   23.00    3.30
   0   2  14   28.80    3.10
   0  -2  14   38.50    4.90
   0   2  14   33.80    4.20
   0   2  14   28.80    3.40
   0  -2  14   27.00    3.20
   0  -2  14   26.40    3.60
   0  -2  14   27.70    2.50
  -1   2  14   25.30    3.60
   1  -2  14   23.10    2.80
   1  -2  14   28.10    3.70
  -1  -2 -14   22.00    3.20
   1  -2  14   25.50    3.00
   1  -2  14   18.30    2.80
  -1   2  14   23.40    3.30
  -1   2  14   26.80    3.30
   1  -2  14   22.00    2.50
  -1   2  14   24.40    2.90
  -1   2  14   25.00    3.70
  -1  -2  14   23.70    3.00
  -1  -2  14   32.20    3.80
   1   2  14   24.30    2.90
  -1  -2  14   26.40    3.40
   1  -2 -14   21.90    3.00
  -1  -2  14   25.30    3.10
  -1  -2  14   20.70    2.30
   1   2  14   26.90    3.40
   1   2  14   20.60    3.00
  -2   2  14   -0.20    1.60
   2  -2  14    0.20    1.10
   2  -2  14   -1.10    1.20
  -2   2  14    4.10    1.90
   2  -2  14    1.90    1.80
   2  -2  14    2.80    1.20
  -2  -2 -14    1.90    1.60
  -2   2  14    1.70    1.40
  -2   2  14    1.10    1.50
  -2   2  14    0.60    1.40
   2  -2  14    2.00    1.50
  -2  -2  14   -0.80    1.10
  -2  -2  14   -0.10    1.90
   2   2  14    1.70    1.50
  -2  -2  14    3.40    1.80
   2  -2 -14    1.10    1.60
   2   2  14   -0.70    1.40
  -2  -2  14    5.10    2.20
  -2  -2  14    1.50    1.70
  -2  -2  14    1.70    1.60
  -2   2 -14   -1.60    1.50
   3  -2  14   14.70    3.10
  -3   2  14   12.90    2.40
  -3   2  14   15.30    2.70
   3  -2  14   10.80    2.30
  -3  -2 -14   12.40    2.60
   3  -2  14    7.10    2.30
  -3   2  14   12.90    2.80
   3  -2  14   11.40    2.30
  -3   2  14   13.50    2.90
   3  -2  14   11.80    2.40
  -3  -2  14   14.10    2.90
  -3  -2  14   12.20    2.70
   3  -2 -14    9.30    2.70
   3   2  14   14.20    2.80
  -3  -2  14   11.10    1.70
  -3  -2  14   14.40    3.40
   3   2  14   10.10    2.20
  -3  -2  14    8.50    2.20
  -3   2 -14   14.60    3.50
   4  -2  14   29.30    3.60
  -4  -2 -14   32.60    3.70
   4  -2  14   18.60    3.00
  -4   2  14   31.30    3.80
   4   2 -14   22.30    3.60
  -4   2  14   21.90    3.20
   4  -2  14   22.20    3.60
  -4   2  14   22.50    3.30
   4  -2  14   23.40    3.60
  -4  -2  14   22.00    2.60
   4   2  14   32.00    4.10
  -4  -2  14   28.10    3.80
   4  -2 -14   26.00    3.80
  -4  -2  14   25.80    3.90
  -4  -2  14   32.80    4.70
  -4  -2  14   24.20    3.40
  -4   2 -14   30.50    3.70
   5   2 -14   -1.30    2.40
   5  -2  14   -0.10    2.00
  -5   2  14    1.50    2.20
  -5   2  14    0.80    2.20
  -5  -2 -14    2.60    2.10
  -5  -2 -14    2.90    2.30
   5  -2  14    3.50    2.70
  -5   2  14    1.30    2.30
  -5   2 -14    4.50    3.00
  -5  -2  14    0.00    1.00
  -5  -2  14    1.10    2.10
  -5  -2  14    0.50    2.70
  -5  -2  14    0.00    3.20
   5  -2 -14    0.50    4.10
   6  -2  14    2.80    1.90
  -6  -2 -14    1.50    1.20
   6   2 -14    2.50    2.20
  -6  -2 -14    0.60    2.00
  -6   2  14    1.20    1.60
  -6  -2 -14    1.00    2.00
   6  -2  14    1.10    1.30
  -6  -2  14    1.40    1.80
  -6   2 -14    0.30    1.50
   6   2  14    3.00    2.30
  -6   2 -14    0.20    2.20
  -6  -2  14    3.30    2.00
  -6  -2  14   -0.50    1.70
   6  -2 -14    2.70    2.20
  -7   2  14    3.40    1.50
  -7  -2 -14    3.00    1.80
   7   2 -14    4.30    2.10
   7  -2  14    2.40    2.00
  -7  -2 -14    3.50    2.10
   7   2  14    1.90    1.90
   7  -2 -14    5.10    2.40
  -7  -2  14    6.40    1.80
  -7  -2  14    3.00    1.70
  -7   2 -14    3.70    1.90
   8   2 -14    3.20    1.40
  -8   2  14    2.40    0.80
   8  -2  14    1.40    0.80
  -8  -2 -14    1.70    1.00
  -8   2  14    4.10    1.10
   8  -2  14    1.40    0.90
  -8  -2  14    3.00    1.10
  -8   2 -14    3.50    1.70
   8   2  14    0.40    0.80
   0  -3  14    7.30    2.00
   0  -3  14    7.90    2.30
   0  -3  14    9.20    3.20
   0  -3 -14    9.40    2.20
   0  -3  14   10.70    2.60
   0  -3  14   10.80    2.20
   0   3  14   15.90    2.90
   0   3  14    5.50    2.20
   0  -3  14   13.40    2.80
   0   3  14   16.70    2.80
   1  -3  14    3.40    1.40
  -1   3  14    3.40    1.70
   1  -3  14    4.90    2.00
   1  -3  14    5.00    2.60
   1  -3  14    2.50    1.70
  -1   3  14    2.70    1.80
   1  -3  14    2.70    1.30
   1  -3  14    6.70    1.90
  -1  -3 -14    3.40    1.70
  -1   3  14    2.10    1.40
  -1  -3  14    5.00    1.80
   1   3  14    5.00    1.80
  -1  -3  14    6.30    2.20
   1  -3 -14    2.70    1.80
  -1  -3  14    5.20    2.00
   1   3  14    5.30    2.00
  -1  -3  14    6.30    2.50
   1   3  14    2.10    1.80
  -1  -3  14    1.10    3.20
  -1  -3  14    2.20    1.90
  -2  -3 -14   12.50    2.40
  -2   3  14   14.40    2.70
   2  -3  14   10.60    2.40
  -2   3  14   10.80    2.50
  -2   3  14   14.20    2.20
  -2   3  14    7.70    2.10
   2  -3  14   14.80    2.60
   2  -3  14   11.10    2.00
   2  -3  14   10.80    2.40
   2  -3  14   12.90    3.10
  -2   3 -14   17.00    2.50
   2   3  14   12.60    2.60
   2   3  14   13.60    2.30
  -2  -3  14   10.70    3.10
  -2  -3  14   18.00    3.10
   2  -3 -14   11.70    2.60
  -2  -3  14    9.10    2.20
  -2  -3  14   12.70    2.80
  -2  -3  14    6.00    1.80
   3  -3  14   70.29    6.20
   3  -3  14   67.19    5.90
  -3   3  14   69.59    5.60
   3  -3  14   69.89    5.70
  -3   3  14   75.89    5.80
  -3   3  14   67.59    5.50
  -3  -3 -14   65.59    5.10
   3  -3  14   65.49    5.00
  -3  -3  14   73.49    6.20
   3  -3 -14   73.69    5.90
   3   3  14   63.79    5.40
  -3  -3  14   68.69    6.10
  -3  -3  14   63.49    5.70
  -3   3 -14   66.29    5.50
  -3  -3  14   64.59    5.80
  -4   3  14   34.30    4.00
   4  -3  14   25.10    3.50
   4  -3  14   32.90    3.80
   4   3 -14   23.00    3.70
   4  -3  14   21.10    3.20
  -4   3  14   22.10    3.60
   4  -3  14   34.20    4.70
  -4   3  14   30.30    3.40
  -4  -3 -14   31.10    3.50
  -4  -3  14   34.20    4.50
  -4  -3  14   37.20    4.30
   4   3  14   32.10    4.00
  -4  -3  14   38.40    4.70
  -4  -3  14   30.50    4.30
  -4   3 -14   33.20    4.00
   4  -3 -14   34.50    4.60
   5  -3  14   15.90    2.70
   5   3 -14   25.70    4.10
  -5  -3 -14   25.00    3.70
   5  -3  14   18.30    3.10
  -5   3  14   17.40    4.70
  -5   3  14   15.90    3.20
  -5  -3  14   19.30    3.10
   5   3  14   19.10    3.30
  -5  -3  14   14.90    3.00
  -5  -3  14   18.90    3.40
  -5  -3  14   20.80    3.40
  -5   3 -14   16.40    2.90
   5  -3 -14   21.00    3.40
  -5   3 -14   18.40    3.60
   6  -3  14    6.60    1.70
  -6   3  14    7.10    2.00
   6  -3  14    9.50    2.50
   6   3 -14    4.70    2.40
  -6  -3 -14   10.10    2.40
   6  -3  14    1.70    2.60
   6  -3 -14    6.00    2.10
  -6   3 -14    8.80    2.90
  -6   3 -14   11.60    2.20
  -6  -3  14    5.90    2.30
  -6  -3  14    7.80    2.20
  -6  -3  14    4.70    2.10
   6   3  14    5.10    2.20
  -7  -3 -14    1.20    1.40
   7  -3  14    0.20    1.40
  -7   3  14    5.10    1.50
  -7   3  14    1.50    1.30
   7   3 -14    1.60    1.60
  -7   3 -14    5.10    2.10
  -7  -3  14    2.40    1.60
  -7  -3  14    2.10    1.40
  -7   3 -14    5.40    1.50
   7   3  14    0.50    1.50
  -7  -3  14    3.90    1.60
   7  -3 -14    1.80    1.20
   0  -4  14  120.29    7.90
   0  -4  14  119.29    7.80
   0  -4  14  114.39    8.20
   0  -4 -14  119.09    7.50
   0   4  14  122.59    8.10
   0  -4  14  110.09    8.50
   0  -4  14  115.99    7.60
   0   4  14  114.89    6.90
  -1   4  14   86.99    6.40
   1  -4  14   83.79    5.60
   1  -4  14   95.29    6.90
   1  -4  14   75.49    6.30
   1  -4  14   76.29    6.30
  -1   4  14   85.79    6.30
   1  -4  14   80.19    6.00
  -1  -4 -14   84.39    5.80
   1  -4  14   71.79    6.10
  -1  -4  14   83.59    6.50
  -1  -4  14   87.49    6.30
  -1  -4  14   85.09    6.20
   1   4  14   84.39    6.20
  -1  -4  14   73.79    6.60
  -1  -4  14   67.29    6.00
  -1  -4  14   77.29    6.50
   1   4  14   77.09    5.30
   1  -4 -14   85.19    5.90
   2  -4  14   30.50    4.50
   2  -4  14   23.20    3.20
   2   4 -14   14.50    4.70
  -2  -4 -14   21.50    2.90
  -2   4  14   23.20    3.60
  -2   4  14   15.30    2.70
  -2   4  14   26.60    3.60
   2  -4  14   22.90    3.60
   2  -4  14   20.50    4.90
  -2  -4  14   25.30    3.30
   2   4  14   21.20    3.40
  -2  -4  14   22.30    3.70
   2   4  14   20.20    2.50
  -2  -4  14   15.40    2.70
  -2  -4  14   17.20    2.90
   2  -4 -14   27.70    3.50
  -2  -4  14   27.10    3.90
  -3   4  14   30.10    3.70
  -3   4  14   29.10    3.50
   3  -4  14   29.50    3.00
  -3  -4 -14   31.60    3.40
   3  -4  14   40.10    5.20
   3  -4  14   34.50    4.80
   3  -4  14   29.90    4.40
  -3   4  14   32.90    3.50
   3  -4  14   22.10    3.50
  -3   4  14   31.80    4.20
   3   4  14   29.90    3.40
  -3  -4  14   34.00    4.20
  -3  -4  14   38.60    4.80
   3   4  14   32.40    4.00
  -3  -4  14   26.80    3.80
  -3   4 -14   27.10    3.70
  -3  -4  14   37.10    4.30
   3  -4 -14   35.60    4.20
   4  -4  14   43.50    5.20
  -4  -4 -14   44.20    4.00
   4  -4  14   51.59    5.50
   4  -4  14   47.60    4.20
   4  -4  14   53.49    5.10
  -4   4  14   48.40    5.00
  -4   4  14   52.59    4.90
  -4  -4  14   54.49    5.00
  -4  -4  14   45.80    5.40
  -4  -4  14   51.29    5.50
   4   4  14   45.70    4.90
  -4   4 -14   49.20    4.80
   4  -4 -14   56.59    5.10
  -4  -4  14   50.39    4.90
  -5   4  14    6.40    2.20
   5  -4  14    8.50    2.60
   5   4 -14    9.50    2.60
   5  -4  14   13.90    3.40
   5  -4  14    9.90    2.20
   5  -4  14    6.90    2.50
  -5   4 -14   13.20    2.70
   5   4  14   10.60    2.70
  -5   4 -14   16.70    3.60
  -5  -4  14   15.90    2.90
  -5  -4  14    8.50    2.40
  -5  -4  14    3.70    2.30
  -5  -4  14   13.00    3.10
   5  -4 -14    9.80    2.30
  -6   4  14    3.50    1.90
   6  -4  14    4.40    2.10
   6   4 -14    2.30    2.10
   6  -4  14    4.10    1.50
   6  -4  14    6.30    1.70
   6  -4  14    0.40    2.10
  -6  -4  14    2.70    1.80
   6   4  14    4.20    2.10
  -6  -4  14    4.80    1.90
   6  -4 -14    2.50    2.10
  -6  -4  14    7.40    2.40
  -6   4 -14    3.40    2.30
  -6   4 -14    4.80    1.70
  -7  -4 -14    5.90    1.50
  -7   4  14    3.30    1.20
   7  -4  14    5.30    1.70
   7  -4  14    6.30    1.40
   7   4 -14    9.00    1.70
  -7   4  14    6.90    1.40
  -7  -4  14    6.50    1.80
  -7   4 -14    9.40    1.40
  -7  -4  14   12.90    2.30
   7   4  14    4.80    1.30
  -7   4 -14    7.90    2.20
  -7  -4  14    6.80    1.50
   0  -5  14   35.10    4.50
   0  -5  14   31.60    4.40
   0   5  14   32.90    4.00
   0  -5 -14   34.90    3.60
   0  -5  14   33.40    3.80
   0  -5  14   32.50    4.60
   0  -5  14   39.60    4.20
   1  -5  14   42.50    5.20
   1  -5  14   41.60    4.90
   1  -5  14   40.90    4.60
   1  -5  14   43.20    4.80
  -1   5  14   47.80    4.70
  -1  -5 -14   42.00    3.80
   1  -5  14   47.30    4.60
  -1  -5  14   42.00    4.50
  -1  -5  14   43.50    5.10
  -1  -5  14   54.19    5.10
  -1  -5  14   44.90    4.70
  -1  -5  14   46.40    5.10
   1  -5 -14   47.80    4.10
   1   5  14   41.60    3.90
  -1  -5  14   40.20    4.30
   1   5  14   40.50    4.40
   2  -5  14   11.60    2.70
  -2  -5 -14   10.20    1.80
   2  -5  14   11.80    3.30
   2  -5  14    5.90    2.40
   2  -5  14    9.70    2.90
  -2   5  14    8.00    2.50
  -2   5  14   11.60    2.60
  -2  -5  14    4.30    1.80
  -2  -5  14   -0.10    3.10
   2  -5 -14    9.70    2.20
   2   5  14   11.70    2.60
  -2  -5  14   11.40    2.80
  -2  -5  14   10.10    3.10
  -2  -5  14   15.50    3.20
   2   5  14   12.20    2.30
  -2  -5  14   11.10    2.60
  -3   5  14   23.30    3.60
   3  -5  14   18.90    3.70
   3  -5  14   30.00    4.60
   3  -5  14   34.80    5.00
  -3   5  14   25.90    3.60
   3  -5  14   19.30    3.40
   3   5  14   28.40    4.00
   3   5  14   24.80    3.20
  -3  -5  14   18.20    3.40
  -3   5 -14   29.70    3.80
   3  -5 -14   30.70    3.50
  -3  -5  14   32.40    4.10
   4  -5  14    3.20    3.10
   4  -5  14   -1.30    4.00
  -4   5  14    9.60    3.70
   4  -5  14    5.10    3.00
   4  -5  14   -0.60    1.10
   4  -5  14    2.20    2.00
  -4   5  14    1.60    1.90
  -4   5  14    1.70    1.60
  -4  -5  14    5.00    2.50
  -4  -5  14    0.60    2.30
  -4   5 -14   -1.40    2.50
  -4  -5  14    1.10    1.70
  -4   5 -14    3.70    2.60
   4   5  14    2.30    1.70
  -4  -5  14    3.60    2.30
   5  -5  14   15.50    2.90
   5  -5  14   21.80    3.80
   5   5 -14   11.00    2.80
  -5   5  14   11.10    3.20
   5  -5  14   11.80    2.00
   5  -5  14   15.90    3.50
  -5   5  14   17.00    2.90
  -5  -5  14   19.30    2.90
  -5  -5  14    9.20    2.30
  -5   5 -14   23.40    3.30
  -5  -5  14   19.70    3.20
   5  -5 -14   13.00    1.90
   5   5  14   10.40    2.50
  -5   5 -14   16.60    3.10
   6   5 -14    4.40    1.90
  -6   5  14    4.60    2.00
   6  -5  14    7.70    2.10
  -6   5  14    6.30    1.50
   6  -5  14    6.50    2.30
  -6   5 -14    5.60    2.30
   6   5  14    5.50    2.10
  -6  -5  14    7.30    1.70
  -6  -5  14    8.10    2.60
  -6   5 -14    3.10    1.20
  -6  -5  14    3.30    1.90
   7   5 -14    3.40    1.30
   7  -5  14    3.40    1.10
  -7   5  14    2.60    1.20
  -7  -5 -14    1.60    1.10
  -7  -5 -14    1.50    1.20
   7   5  14    0.40    1.10
  -7   5 -14    4.40    1.10
  -7  -5  14    0.10    1.00
  -7  -5  14    1.80    1.50
   0  -6  14   27.90    4.30
   0   6  14   31.30    4.10
   0  -6  14   32.50    5.40
   0  -6  14   31.70    3.80
   0  -6  14   29.50    4.20
   0  -6  14   31.20    4.00
   1  -6  14   49.40    5.30
   1  -6  14   56.19    5.90
  -1   6  14   52.69    5.20
   1  -6  14   55.29    5.60
   1  -6  14   56.29    5.60
  -1  -6  14   58.09    5.60
  -1  -6  14   52.59    5.80
  -1  -6  14   57.69    5.10
  -1  -6  14   51.49    5.10
  -1  -6  14   55.49    5.50
   1   6  14   62.59    5.20
   1  -6 -14   52.09    3.90
   1   6  14   59.09    4.70
  -1  -6  14   56.19    5.20
   2  -6  14   65.59    6.40
   2  -6  14   61.19    6.30
  -2   6  14   64.39    5.80
   2  -6  14   62.19    6.20
  -2   6  14   67.99    5.50
   2  -6  14   61.59    6.10
  -2  -6  14   62.59    6.40
   2   6  14   65.09    5.10
  -2  -6  14   59.69    7.20
  -2  -6  14   76.39    5.80
  -2  -6  14   68.39    5.80
  -2  -6  14   68.59    6.00
  -2  -6  14   65.89    6.30
   2   6  14   58.49    5.60
   3  -6  14   24.50    4.60
   3  -6  14   33.40    4.70
  -3   6  14   31.10    4.90
  -3   6  14   24.90    3.70
   3  -6  14   26.70    4.10
   3  -6  14   24.80    4.10
  -3  -6  14   30.80    3.90
  -3  -6  14   17.50    3.50
  -3   6 -14   34.70    4.00
  -3  -6  14   26.00    3.80
   3   6  14   20.60    4.70
  -3  -6  14   39.20    5.50
  -3   6 -14   36.60    5.50
   4  -6  14   28.40    4.20
   4  -6  14   16.20    4.60
  -4   6  14   21.90    3.40
   4  -6  14   22.30    3.80
   4  -6  14   29.50    3.10
   4   6  14   25.50    3.00
  -4   6 -14   29.00    4.30
   4   6  14   16.60    2.90
  -4  -6  14   30.80    3.50
  -4  -6  14   22.70    3.40
  -4   6 -14   28.40    3.40
  -4  -6  14   19.80    3.50
   5  -6  14   -1.40    1.90
  -5   6  14    2.30    1.60
   5  -6  14   -0.10    2.30
   5  -6  14    3.20    2.80
  -5  -6  14    1.60    1.90
   5   6  14    1.10    1.40
  -5  -6  14    1.30    1.60
  -5   6 -14    1.60    1.70
  -5  -6  14   -1.00    1.50
  -5   6 -14    3.50    2.60
  -6   6  14    2.10    1.20
   6  -6  14    4.20    1.60
   6   6  14    0.50    1.40
  -6   6 -14   13.50    2.70
  -6  -6  14    6.50    2.00
  -6  -6  14    6.50    1.40
  -6  -6  14    5.60    1.80
   0  -7  14   12.80    3.10
   0  -7  14    6.70    2.30
   0  -7  14    6.30    2.70
   0  -7  14    8.90    3.30
   0   7  14    7.00    2.30
   0  -7  14    4.50    2.10
   1  -7  14    5.30    2.80
   1  -7  14    6.90    3.30
   1  -7  14    4.90    2.70
   1  -7  14    5.00    2.50
  -1  -7  14    1.40    3.30
   1   7  14    7.90    3.10
  -1  -7  14    5.00    2.90
  -1  -7  14    2.00    2.50
  -1  -7  14    5.80    2.70
  -1  -7  14    4.50    4.80
   2  -7  14    4.20    2.50
  -2   7  14    9.10    2.90
   2  -7  14    5.50    3.10
   2  -7  14    3.50    3.40
   2  -7  14    2.10    2.60
  -2   7  14    5.50    2.20
   2   7  14    6.90    2.20
  -2  -7  14    5.20    2.20
  -2  -7  14    9.50    3.90
  -2  -7  14    9.10    2.30
   2   7  14    7.00    2.10
  -2  -7  14    3.60    3.00
  -2  -7  14    4.50    2.20
  -2  -7  14    5.30    2.10
   3  -7  14    6.90    5.00
   3  -7  14    5.20    2.70
   3  -7  14    5.60    3.00
   3  -7  14    4.40    1.70
  -3   7  14    1.00    1.70
   3   7  14    6.00    1.90
  -3  -7  14    3.50    2.20
  -3  -7  14    4.10    1.80
   3   7  14    4.30    1.90
  -3   7 -14    4.10    2.70
  -3   7 -14    1.40    2.40
   4  -7  14    1.50    2.00
   4  -7  14    1.80    4.30
  -4   7  14    2.40    1.70
   4  -7  14    5.20    2.30
  -4   7 -14    2.80    1.20
   4   7  14    4.30    1.50
  -4  -7  14    3.60    2.00
   4   7  14    6.40    2.10
  -4  -7  14    3.90    1.70
  -4  -7  14    3.20    1.70
  -4   7 -14   10.20    4.70
   5  -7  14    2.50    2.00
   5  -7  14    3.80    1.70
   5  -7  14    5.50    2.10
  -5   7  14    2.40    1.40
  -5  -7  14    4.10    1.60
  -5   7 -14    3.50    1.00
   5   7  14    1.00    1.50
  -5  -7  14    1.40    1.70
  -5  -7  14    5.30    2.50
  -6   7  14    2.10    0.90
   6  -7  14   -0.40    1.00
  -6  -7 -14   -0.30    0.70
  -6  -7  14    0.00    1.00
  -6  -7  14    1.80    1.30
  -6   7 -14    0.80    1.00
   0   8  14   21.10    3.10
   0  -8  14   19.60    3.40
   0  -8  14   23.60    3.90
   0  -8  14   19.70    4.00
   0  -8  14   19.30    2.90
   1  -8  14    1.10    2.40
   1  -8  14    2.20    3.50
   1  -8  14    0.10    3.10
  -1   8  14   -2.20    1.40
   1  -8  14    0.10    2.20
  -1  -8  14    0.70    2.00
  -1  -8  14    0.40    1.60
  -1  -8  14    0.10    3.10
  -1  -8  14   -0.90    2.80
   1   8  14    0.60    1.80
   1   8  14   -0.80    1.50
  -1  -8  14    0.30    1.50
   2  -8  14   15.00    5.10
   2  -8  14   15.70    3.00
  -2   8  14   10.60    2.40
   2  -8  14   15.30    3.60
   2   8  14    9.60    2.30
  -2  -8  14   10.80    5.90
   2   8  14   17.40    2.30
  -2  -8  14   11.70    5.40
  -2  -8  14   11.60    2.50
  -2  -8  14   15.70    3.10
  -2  -8  14   10.50    2.10
   3  -8  14   -0.50    5.30
   3  -8  14    1.80    2.40
  -3   8  14    0.50    1.60
   3  -8  14    1.60    2.10
  -3   8 -14    3.50    1.10
   3   8  14    1.60    1.40
   3   8  14   -1.20    1.30
  -3  -8  14    3.20    1.60
  -3  -8  14    0.40    2.00
  -3  -8  14    3.50    1.80
   4  -8  14    2.60    2.50
   4  -8  14   -0.60    2.90
  -4   8  14    2.00    1.20
   4  -8  14    1.00    1.80
   4   8  14    5.60    2.00
  -4   8 -14    1.20    0.90
  -4  -8  14    2.40    1.50
  -4  -8  14    2.60    1.60
   5  -8  14    3.30    4.10
  -5   8  14    2.50    1.20
   5  -8  14    1.70    1.40
  -5  -8  14    3.60    1.60
  -5  -8  14    5.40    1.50
  -5   8 -14    3.80    1.20
   0   9  14    1.00    1.20
   0  -9  14    0.70    3.00
   0  -9  14    0.40    4.00
   0  -9  14   -0.40    3.50
   0   9  14    2.50    1.40
  -1   9  14    5.70    1.80
   1  -9  14    6.50    4.10
   1  -9  14    9.80    3.50
   1  -9  14   10.10    4.40
   1   9  14   13.10    1.80
  -1  -9  14    7.10    4.20
  -1  -9  14    8.40    5.60
   1   9  14    8.60    1.60
  -1  -9  14   11.40    3.20
   2  -9  14    4.60    3.90
  -2   9  14    5.20    1.50
   2  -9  14    5.40    2.30
   2  -9  14    0.50    2.80
  -2  -9  14    4.00    5.00
   2   9  14    6.20    1.30
  -2  -9  14    3.50    2.30
  -2  -9  14    0.90    1.30
   3  -9  14    2.10    1.90
  -3   9  14    2.30    1.30
   3  -9  14    2.00    1.80
   3  -9  14    4.30    3.30
  -3  -9  14    0.30    1.10
   4  -9  14    0.90    3.30
   4  -9  14    3.10    1.60
  -4  -9  14   -0.20    0.90
   0 -10  14   -0.20    5.80
   0 -10  14    1.60    3.50
   1 -10  14    1.30    4.70
   1 -10  14    0.80    2.40
  -1 -10  14   -0.40    3.80
  -1 -10  14   -6.00    5.40
   2 -10  14    1.70    4.50
   2 -10  14    3.20    2.00
   0   0  15   -0.20    1.60
   0   0  15   -2.10    1.10
   0   0  15    0.60    1.10
   0   0  15    0.10    1.50
   0   0 -15    2.50    1.50
   0   0  15    1.20    1.50
   1   0  15   -0.80    1.20
   1   0 -15    0.70    1.70
  -1   0  15    1.00    1.30
  -1   0  15    3.40    1.30
  -1   0  15    0.80    1.70
  -1   0  15    0.50    1.30
   1   0  15    3.90    1.50
   1   0  15   -0.30    1.20
   1   0  15    0.90    1.70
  -1   0  15    1.40    2.00
   1   0  15    1.80    1.70
  -1   0 -15   -0.90    1.40
  -2   0 -15    3.70    1.80
   2   0  15    7.70    2.50
  -2   0  15    7.80    2.10
  -2   0  15    3.00    1.30
   2   0  15    7.60    2.50
   2   0  15    3.20    1.70
   2   0  15    4.90    1.50
   2   0 -15    5.90    1.80
  -2   0  15    7.00    2.10
   2   0  15    7.30    2.00
  -2   0  15    3.30    1.90
  -2   0  15    4.00    2.40
   3   0  15  333.57   17.70
   3   0  15  336.57   16.80
  -3   0  15  306.77   17.30
   3   0  15  310.77   16.80
  -3   0  15  258.07   18.90
   3   0 -15  290.87   17.20
  -3   0 -15  287.37   18.70
   3   0  15  321.17   17.20
  -3   0  15  324.07   17.50
   4   0  15   22.10    2.80
   4   0  15   24.50    3.40
  -4   0  15   24.90    3.80
  -4   0 -15   30.90    3.80
   4   0 -15   32.80    4.70
  -4   0  15   32.00    4.20
  -4   0  15   28.80    3.50
   4   0  15   35.40    4.00
  -5   0 -15    0.30    1.60
  -5   0  15    1.80    1.80
   5   0  15    0.80    2.00
   5   0 -15   -0.90    2.40
  -5   0  15    3.70    2.10
  -5   0  15    0.90    1.50
  -5   0  15    1.50    2.20
  -5   0  15    2.30    2.00
  -5   0 -15    5.00    3.20
   5   0  15    1.00    1.70
   5   0  15    1.30    1.80
  -6   0  15    3.40    1.90
   6   0 -15    1.50    2.30
  -6   0  15    2.10    1.80
   6   0  15    3.30    2.10
  -6   0 -15    0.60    3.70
  -6   0 -15    3.10    1.60
  -6   0  15    1.70    1.40
  -6   0  15    2.50    2.00
  -6   0 -15    2.70    2.30
   7   0  15    3.00    1.70
  -7   0  15    9.60    2.10
  -7   0 -15    5.50    2.30
  -7   0 -15    3.00    1.80
  -7   0  15    5.40    1.00
   7   0 -15    6.60    2.10
   8   0  15   -0.10    0.60
  -8   0  15    1.30    0.90
   8   0  15   -1.10    0.80
   8   0 -15   -0.20    1.00
   0   1  15    6.90    1.90
   0   1  15    4.60    1.90
   0   1  15    5.30    1.50
   0  -1 -15   13.70    2.40
   0  -1  15    2.90    1.60
   0   1  15    8.50    1.80
   0  -1  15    5.10    1.70
   0  -1  15    4.50    1.80
   0  -1  15    9.00    1.70
   0   1  15    1.70    1.50
   0  -1  15    6.30    2.40
  -1   1  15   32.80    3.90
   1  -1  15   29.30    3.00
  -1  -1 -15   28.60    3.50
  -1   1  15   29.40    3.60
  -1   1  15   31.80    3.20
   1  -1  15   25.60    3.20
   1  -1  15   35.30    4.20
  -1   1  15   28.70    3.60
   1   1 -15   31.50    4.40
  -1   1  15   33.40    3.50
   1  -1  15   30.80    3.40
   1  -1  15   35.00    3.80
  -1  -1  15   30.00    3.30
   1   1  15   26.50    3.50
  -1   1 -15   30.80    3.60
  -1  -1  15   33.90    2.90
   1  -1 -15   32.70    3.80
  -1  -1  15   33.70    3.80
   1   1  15   32.40    3.50
  -1  -1  15   29.80    3.80
   1   1  15   29.50    3.70
   1   1  15   29.70    3.20
  -1  -1  15   31.60    3.70
   1   1  15   25.80    3.00
  -2   1  15   21.80    3.30
   2   1 -15   15.10    2.80
  -2   1  15   20.20    3.20
   2  -1  15   27.00    4.00
  -2   1  15   22.10    2.80
  -2   1  15   21.00    3.10
   2  -1  15   24.00    2.90
  -2   1  15   30.80    4.70
   2  -1  15   30.10    4.90
   2  -1  15   19.00    2.80
   2  -1  15   19.50    3.00
  -2  -1  15   25.40    2.60
  -2  -1  15   20.40    4.60
  -2  -1  15   23.80    3.40
   2   1  15   23.90    3.40
   2  -1 -15   26.20    3.50
   2   1  15   23.30    3.20
   2   1  15   34.00    5.00
  -2  -1  15   28.20    4.20
  -2  -1  15   19.20    3.00
   2   1  15   21.60    3.00
  -2   1 -15   21.70    3.00
   2   1  15   27.60    2.90
  -3   1  15   52.29    4.50
  -3   1  15   43.50    5.80
   3  -1  15   47.00    4.80
   3   1 -15   44.10    5.20
  -3   1  15   40.40    4.50
  -3   1  15   54.29    4.80
   3  -1  15   45.80    4.30
  -3  -1 -15   44.60    4.30
   3  -1  15   52.19    4.50
  -3  -1  15   47.80    3.90
  -3  -1  15   46.70    4.70
  -3  -1  15   42.20    4.90
   3   1  15   42.30    4.20
   3   1  15   48.10    4.40
  -3   1 -15   46.00    6.60
  -3  -1  15   42.50    5.10
   3   1  15   42.70    4.50
   3  -1 -15   46.80    6.20
  -3  -1  15   43.90    4.50
   3   1  15   39.70    3.80
  -4   1  15   14.70    2.60
  -4   1  15   16.80    3.60
   4  -1  15   14.80    2.80
  -4   1  15   11.70    2.50
  -4  -1 -15   14.70    2.70
   4   1 -15    9.40    2.80
  -4   1  15   14.80    2.70
   4  -1  15   10.90    2.20
   4  -1  15   12.70    3.00
   4  -1  15    9.30    2.50
  -4   1 -15   15.30    2.80
  -4  -1  15   14.80    3.40
  -4  -1  15   18.20    3.70
  -4  -1  15    9.00    2.40
   4   1  15   10.30    2.50
  -4  -1  15   10.40    2.00
  -4  -1  15   10.90    2.90
   4  -1 -15   13.10    3.10
   4   1  15   16.60    3.00
  -5   1  15   37.30    4.60
   5   1 -15   40.10    5.00
   5  -1  15   48.70    4.80
   5  -1  15   35.70    4.50
  -5   1  15   36.20    4.10
  -5  -1 -15   39.90    4.10
  -5   1  15   32.20    5.20
  -5   1  15   47.70    6.60
  -5  -1 -15   47.30    5.60
   5  -1  15   36.50    3.80
  -5  -1  15   38.20    4.60
   5   1  15   39.00    6.00
  -5  -1  15   42.60    4.80
  -5  -1  15   43.00    4.60
  -5  -1  15   40.50    3.40
  -5   1 -15   42.70    4.30
   5  -1 -15   47.10    5.40
  -5  -1  15   42.90    4.60
   5   1  15   42.20    4.50
   6  -1  15    3.80    2.20
  -6   1  15   10.20    2.50
  -6   1  15    5.60    2.00
   6   1 -15    6.20    2.40
  -6  -1 -15    1.30    2.20
  -6  -1 -15    3.40    1.50
  -6  -1 -15    4.30    2.60
  -6  -1  15    8.50    2.20
   6  -1 -15    7.00    2.60
  -6  -1  15    5.00    2.20
  -6   1 -15    7.60    2.80
   6   1  15    4.10    2.10
  -6  -1  15    5.10    1.20
  -6   1 -15    4.50    1.70
  -6  -1  15    4.30    2.00
  -7   1  15   21.40    2.60
   7  -1  15   11.40    2.30
  -7   1  15   12.10    1.80
   7   1 -15   17.30    2.70
  -7  -1 -15   10.40    2.20
  -7  -1 -15   18.50    2.60
  -7  -1  15   16.10    2.20
   7  -1 -15   15.50    2.50
   7   1  15   11.80    2.40
  -7  -1  15   16.00    2.40
  -7   1 -15   16.40    2.00
  -7   1 -15   20.90    3.00
   8  -1  15   -0.80    0.70
   8  -1  15    0.00    0.60
  -8   1  15   -0.40    0.80
   8   1 -15   -1.60    0.80
  -8  -1  15    0.20    0.80
   8   1  15    0.70    0.60
   0  -2  15   11.90    2.30
   0  -2  15   13.60    2.60
   0   2  15   11.20    2.10
   0  -2 -15   13.70    2.40
   0   2  15   15.20    2.60
   0  -2  15   13.10    3.20
   0   2  15   16.70    2.60
   0  -2  15   23.10    3.50
   0  -2  15   15.60    1.90
   0   2  15   10.20    2.20
   0   2  15   13.20    2.70
   0  -2  15   16.30    2.50
   1  -2  15   60.49    4.20
   1  -2  15   65.79    5.20
  -1  -2 -15   62.89    5.00
  -1   2  15   65.29    5.30
  -1   2  15   61.79    5.10
   1  -2  15   59.99    4.90
   1  -2  15   64.19    5.60
   1  -2  15   64.29    4.70
  -1   2  15   59.39    4.90
  -1   2  15   60.79    4.60
  -1   2  15   58.29    5.30
   1   2  15   64.09    5.30
  -1  -2  15   62.69    5.10
  -1  -2  15   58.89    5.50
  -1  -2  15   61.79    5.40
  -1  -2  15   61.19    5.60
  -1   2 -15   47.90    5.10
   1  -2 -15   56.99    5.10
   1   2  15   57.59    5.20
   1   2  15   71.19    5.70
   1   2  15   60.19    5.00
  -1  -2  15   54.79    4.00
  -2  -2 -15    6.30    1.90
   2  -2  15    7.50    2.10
   2  -2  15    7.50    1.80
   2  -2  15    5.70    2.00
  -2   2  15    7.30    2.30
  -2   2  15    7.10    1.90
   2  -2  15    4.90    3.20
  -2   2  15    7.00    2.10
   2  -2  15    5.90    2.70
  -2   2  15    9.10    2.40
  -2   2  15    3.90    1.90
  -2  -2  15    5.20    2.40
  -2  -2  15    7.30    2.60
  -2  -2  15    6.10    2.30
  -2  -2  15    6.00    2.40
  -2  -2  15    4.20    1.20
  -2  -2  15    5.00    2.20
   2   2  15    4.00    1.90
  -2   2 -15    7.60    2.20
   2  -2 -15    3.50    2.20
  -3   2  15   47.10    4.50
   3  -2  15   48.20    5.10
  -3  -2 -15   46.10    4.30
   3   2 -15   35.20    5.40
   3  -2  15   45.40    4.40
  -3   2  15   41.30    4.60
  -3   2  15   45.30    4.70
  -3   2  15   46.10    5.00
   3  -2  15   50.59    5.10
   3  -2  15   48.10    4.30
  -3   2  15   40.00    4.30
  -3   2 -15   46.60    4.40
   3   2  15   48.00    4.40
  -3  -2  15   47.90    5.10
  -3  -2  15   47.90    3.30
  -3  -2  15   42.20    4.90
  -3  -2  15   39.80    5.60
   3   2  15   46.10    4.40
  -3  -2  15   46.00    4.70
   3  -2 -15   48.10    5.00
   3   2  15   42.90    4.30
  -4   2  15  185.08   11.20
  -4   2  15  186.58   11.40
   4  -2  15  186.28   11.60
   4  -2  15  183.08   11.10
   4   2 -15  174.98   11.40
   4  -2  15  188.88   11.50
  -4   2  15  198.68   11.60
  -4  -2 -15  188.68   10.90
   4  -2  15  186.78   11.50
  -4  -2  15  180.68   11.50
  -4  -2  15  153.88    9.70
   4   2  15  185.78   13.40
   4   2  15  177.58   11.40
  -4  -2  15  192.88   11.60
  -4  -2  15  196.68   11.90
  -4   2 -15  179.28   11.00
  -4  -2  15  196.58   11.90
   4  -2 -15  200.28   11.70
   5  -2  15   17.40    3.20
   5  -2  15   20.10    3.70
  -5   2  15   25.60    3.30
  -5  -2 -15   32.20    4.60
  -5   2  15   24.70    5.20
  -5   2  15   23.50    3.40
   5   2 -15   24.30    3.70
  -5   2 -15   31.90    4.50
   5   2  15   26.40    4.00
  -5  -2  15   16.60    2.90
  -5  -2  15   26.80    4.70
  -5  -2  15   26.10    3.60
   5  -2 -15   26.30    3.90
  -5   2 -15   33.90    5.30
  -5  -2  15   19.10    4.60
   6  -2  15   11.00    2.40
  -6   2  15    6.50    1.90
   6  -2  15    6.50    1.60
  -6  -2 -15    7.20    2.10
  -6  -2 -15    6.90    2.30
   6   2 -15    8.90    2.50
  -6  -2 -15    9.60    2.10
  -6  -2  15    6.20    2.10
  -6   2 -15   13.50    3.00
  -6  -2  15   13.60    2.60
   6  -2 -15    9.20    2.50
  -6  -2  15    7.70    2.20
  -6   2 -15   11.30    2.10
   6   2  15   10.10    2.90
  -7   2  15    1.40    1.10
  -7  -2 -15    2.30    1.30
   7   2 -15   -1.00    1.50
   7  -2  15    0.00    1.50
  -7   2  15    1.00    1.30
  -7  -2 -15    3.20    3.00
   7  -2  15    1.00    1.20
  -7   2 -15    3.10    1.40
  -7  -2  15    2.80    1.50
  -7  -2  15    0.30    1.40
  -7   2 -15    3.40    2.20
  -7  -2  15    3.90    1.50
   7   2  15    0.90    1.50
   0   3  15   64.69    5.50
   0   3  15   61.69    5.30
   0  -3  15   59.39    5.10
   0  -3  15   65.59    5.00
   0   3  15   62.89    5.00
   0   3  15   59.39    5.00
   0  -3 -15   55.19    4.90
   0  -3  15   54.39    6.20
   0  -3  15   59.29    5.20
   0  -3  15   64.39    5.50
   0  -3  15   62.09    5.60
  -1   3  15  168.38   10.00
   1  -3  15  145.69    9.50
  -1   3  15  154.18    9.70
   1  -3  15  153.28    9.30
   1  -3  15  144.09   10.90
   1  -3  15  141.79    8.30
   1  -3  15  147.99    9.90
   1  -3  15  167.88   10.70
   1  -3  15  160.78   10.20
  -1  -3 -15  145.49    9.20
  -1   3  15  154.68    9.70
  -1  -3  15  151.28   10.00
  -1  -3  15  154.68    9.60
   1   3  15  162.28   10.00
  -1  -3  15  151.98   10.10
   1   3  15  155.48    9.30
   1  -3 -15  148.89    9.40
  -1  -3  15  166.48    9.80
  -1  -3  15  152.78   10.00
   1   3  15  153.18    9.70
  -2   3  15   26.40    3.70
   2  -3  15   36.70    4.70
  -2  -3 -15   25.00    3.20
  -2   3  15   22.60    3.30
   2  -3  15   21.90    3.20
   2  -3  15   18.60    2.40
   2  -3  15   15.40    2.80
  -2   3  15   16.40    2.90
  -2   3  15   14.40    2.80
   2  -3  15   24.30    3.80
   2   3  15   20.10    3.50
  -2  -3  15   32.00    4.40
  -2  -3  15   23.00    3.20
  -2  -3  15   18.70    3.20
   2   3  15   23.00    3.00
  -2  -3  15   26.40    3.70
  -2  -3  15   19.40    3.40
  -2   3 -15   22.60    3.20
  -3   3  15    2.30    1.50
  -3   3  15    5.50    1.90
   3  -3  15    3.40    1.50
   3  -3  15    4.60    2.60
   3  -3  15    6.10    2.80
  -3   3  15    4.20    2.00
   3  -3  15    2.20    2.00
  -3  -3 -15    2.90    1.50
  -3   3  15    5.60    2.30
  -3  -3  15    6.40    2.20
   3  -3 -15    5.80    2.50
  -3  -3  15    5.20    2.20
  -3   3 -15    5.40    2.10
   3   3  15    4.70    2.20
  -3  -3  15    5.50    2.50
  -3  -3  15    6.40    2.90
  -4  -3 -15    8.10    2.00
   4  -3  15    8.50    2.60
  -4   3  15    7.00    2.10
  -4   3  15    4.60    2.10
   4  -3  15    5.60    2.50
   4  -3  15    7.70    2.40
  -4   3  15    7.30    2.40
   4   3 -15    8.30    2.70
   4  -3  15    3.70    1.80
  -4   3  15    4.40    1.90
  -4  -3  15    9.80    3.10
   4  -3 -15    6.50    2.60
  -4  -3  15    8.70    2.70
  -4   3 -15    5.20    2.20
   4   3  15    5.70    2.20
  -4  -3  15    3.30    2.10
  -4  -3  15    5.60    2.00
  -5  -3 -15   22.20    2.60
  -5   3  15   13.80    2.80
   5  -3  15   20.20    3.00
   5  -3  15   12.80    2.70
   5   3 -15   27.10    3.80
   5  -3  15   19.90    2.90
  -5   3 -15   24.00    3.30
  -5  -3  15   23.30    3.20
   5  -3 -15   21.30    3.30
   5   3  15   19.00    3.30
  -5  -3  15   12.80    2.80
  -5  -3  15   26.70    4.10
  -5  -3  15   20.20    3.60
  -5   3 -15   22.90    4.20
  -6   3  15    0.70    1.40
   6  -3  15   -0.70    1.20
   6   3 -15   -1.10    2.00
   6  -3  15   -1.50    1.70
  -6   3  15    1.30    1.50
  -6  -3 -15   -0.20    2.60
   6  -3  15    0.40    1.10
   6  -3  15   -0.90    2.20
   6   3  15    1.10    1.70
  -6   3 -15   -0.60    2.30
  -6  -3  15    2.90    1.70
  -6   3 -15    1.10    1.50
  -6  -3  15    0.80    1.80
   6  -3 -15    0.10    1.70
  -6  -3  15    2.50    1.90
  -7   3  15    1.10    1.10
   7   3 -15    3.10    1.60
   7  -3  15    1.30    1.00
  -7  -3 -15    2.10    1.40
  -7   3  15    1.30    1.10
   7  -3  15    2.60    1.30
  -7  -3  15    1.60    1.60
   7   3  15    1.40    1.30
  -7   3 -15    1.70    1.80
  -7   3 -15    0.60    1.00
   7  -3 -15    0.60    0.90
  -7  -3  15    2.50    1.50
  -7  -3  15    3.30    1.20
   0  -4  15    4.30    1.90
   0  -4  15    5.10    2.50
   0  -4  15    4.70    2.40
   0  -4  15    9.60    3.50
   0   4  15    7.30    2.10
   0  -4 -15    6.60    2.10
   0  -4  15    4.90    2.00
   0  -4  15    6.70    2.20
   1  -4  15   18.80    2.70
   1  -4  15   21.30    4.10
  -1  -4 -15   14.40    2.40
   1  -4  15   19.60    3.00
  -1   4  15   10.50    2.60
   1  -4  15   24.80    4.10
   1  -4  15   15.50    2.80
  -1   4  15   13.10    2.60
   1  -4  15   16.90    3.40
  -1   4  15   13.40    2.80
  -1  -4  15   16.60    3.10
  -1  -4  15   17.20    3.60
  -1  -4  15   14.80    2.90
  -1  -4  15   14.00    3.20
  -1  -4  15    6.10    3.00
   1   4  15   16.20    3.10
  -1  -4  15   14.70    2.80
   1  -4 -15   16.40    2.60
  -2   4  15   17.40    3.10
   2  -4  15   20.60    4.00
  -2   4  15    9.60    2.40
   2  -4  15   13.20    3.10
   2  -4  15   17.60    3.10
   2  -4  15   16.60    3.50
  -2   4  15   19.80    3.20
  -2  -4 -15   20.00    3.00
   2  -4  15   16.80    3.00
   2  -4 -15   17.20    2.90
  -2  -4  15   20.60    3.30
  -2  -4  15   20.40    3.60
  -2  -4  15   20.90    3.70
  -2  -4  15   20.90    3.70
  -2  -4  15   14.80    3.10
   2   4  15   20.30    3.40
  -3  -4 -15  199.08   11.10
   3  -4  15  207.38   12.50
   3  -4  15  208.78   12.80
  -3   4  15  183.48   11.20
  -3   4  15  200.98   12.10
   3  -4  15  181.48   10.70
   3  -4  15  196.18   12.50
   3  -4  15  201.18   12.30
  -3  -4  15  203.48   12.70
   3  -4 -15  205.58   11.80
  -3  -4  15  207.48   12.20
  -3   4 -15  189.78   11.60
  -3  -4  15  196.98   12.20
   3   4  15  204.48   12.20
   4  -4  15   18.10    3.40
   4  -4  15   22.90    3.80
  -4   4  15   17.40    3.10
  -4   4  15   26.40    3.60
   4  -4  15   15.30    2.80
   4  -4  15   16.40    3.40
   4  -4  15   19.30    4.00
   4  -4 -15   23.00    3.20
  -4  -4  15   27.90    4.10
  -4  -4  15   27.40    3.60
  -4  -4  15   13.90    3.00
  -4  -4  15   13.80    2.70
   4   4  15   23.90    3.50
  -4   4 -15   27.90    3.60
   5  -4  15    4.80    2.30
   5  -4  15    6.80    2.30
  -5   4  15    1.90    1.80
  -5   4  15    5.30    1.90
   5   4 -15    6.20    2.60
   5  -4  15    1.90    2.40
   5  -4  15    4.00    1.50
  -5  -4  15    7.10    2.40
  -5  -4  15    7.70    2.40
   5  -4 -15    4.20    2.00
  -5   4 -15    5.10    2.00
   5   4  15    7.30    2.20
  -5  -4  15    2.80    1.70
  -5   4 -15    5.20    3.00
   6  -4  15    7.60    2.00
   6  -4  15    8.00    1.40
  -6   4  15    7.00    2.10
   6   4 -15    3.70    1.90
  -6   4  15    7.40    1.60
   6  -4  15    4.50    2.30
  -6  -4  15    5.20    2.10
   6  -4 -15    7.10    1.40
  -6  -4  15    4.10    1.90
  -6  -4  15    7.50    2.50
  -6   4 -15    8.60    2.70
  -6   4 -15    5.80    2.70
   6   4  15    5.80    2.20
  -7   4  15    7.10    1.50
  -7   4  15    4.40    1.30
   7   4 -15    8.20    1.60
   7  -4  15    6.50    1.70
  -7   4 -15    8.80    2.00
  -7   4 -15    8.30    1.30
  -7  -4  15    6.20    1.30
   7   4  15    3.50    1.40
  -7  -4  15   11.30    1.90
  -7  -4  15    9.50    1.40
   0  -5  15  305.37   17.40
   0  -5  15  310.27   17.20
   0  -5  15  304.97   17.30
   0  -5  15  306.17   17.90
   0   5  15  304.57   17.50
   0  -5 -15  307.17   16.50
   0  -5  15  307.57   17.30
   0  -5  15  310.87   18.00
  -1  -5 -15   85.29    5.70
   1  -5  15   79.19    6.80
  -1   5  15   83.79    6.70
   1  -5  15   89.49    6.60
  -1   5  15   99.39    8.60
   1  -5  15   88.89    7.30
   1  -5  15   76.79    6.20
   1  -5  15   91.79    7.00
  -1  -5  15   93.59    7.20
  -1  -5  15   78.69    6.90
   1  -5 -15   92.49    6.00
   1   5  15   86.09    5.50
   1   5  15   86.49    6.60
  -1  -5  15   70.29    6.30
  -1  -5  15   89.89    7.00
  -1  -5  15   81.29    6.60
  -1  -5  15   82.49    6.90
   2  -5  15   32.20    4.80
   2  -5  15   29.20    6.00
  -2  -5 -15   25.00    2.90
  -2   5  15   25.50    3.80
   2  -5  15   21.10    3.40
  -2   5  15   24.40    3.70
   2  -5  15   27.30    4.30
  -2  -5  15   23.00    3.50
   2   5  15   25.20    2.60
   2  -5 -15   29.30    3.40
   2   5  15   30.10    4.00
  -2  -5  15   24.00    3.90
  -2  -5  15   25.90    3.90
  -2  -5  15   23.30    4.20
  -2  -5  15   21.60    3.40
  -3   5  15    0.50    1.90
   3  -5  15    1.00    2.40
   3  -5  15    0.00    2.30
   3  -5  15    1.60    3.20
  -3   5  15    1.20    2.00
   3  -5  15   -0.70    2.20
  -3  -5  15   -0.30    1.70
  -3  -5  15   -1.70    2.20
  -3  -5  15    0.00    2.00
   3  -5 -15    0.00    1.60
  -3  -5  15    2.60    2.00
  -3   5 -15    1.40    2.00
   3   5  15    0.30    1.70
  -4   5  15   -0.10    1.80
   4  -5  15   -1.30    2.00
   4  -5  15   -0.10    3.60
   4  -5  15   -0.90    1.90
   4  -5  15    0.00    1.50
  -4  -5  15    1.40    2.30
  -4  -5  15    0.90    1.90
  -4  -5  15    1.60    2.10
  -4   5 -15    1.90    1.80
  -4   5 -15    1.50    2.90
   4  -5 -15    1.70    1.50
   4   5  15    0.10    1.60
  -4  -5  15    0.60    1.70
  -5   5  15    4.40    1.80
   5   5 -15    1.90    2.00
   5  -5  15    5.30    2.80
   5  -5  15    5.20    2.30
   5  -5  15    3.90    2.00
  -5   5  15    2.40    1.20
   5   5  15    1.90    1.70
  -5  -5  15    5.50    2.00
  -5   5 -15    4.90    1.80
   5  -5 -15    4.70    1.40
  -5   5 -15    5.50    2.30
  -5  -5  15    2.80    1.80
  -5  -5  15    0.60    1.70
  -6   5  15    3.10    1.60
   6  -5  15    4.90    1.90
   6   5 -15    0.70    1.30
   6  -5  15    3.00    1.40
  -6  -5  15    2.80    1.90
  -6  -5  15    2.00    1.30
  -6   5 -15    6.10    2.00
   6   5  15    1.60    1.50
  -6  -5  15    3.00    1.70
  -6   5 -15    1.00    0.90
  -7  -5 -15    6.20    1.20
   7  -5  15    5.70    1.30
  -7  -5  15   12.60    1.80
  -7  -5  15    6.50    1.60
   0  -6  15    1.60    2.40
   0  -6  15    1.60    1.80
   0  -6  15    3.30    2.80
   0  -6  15    2.50    2.00
   0   6  15    0.40    1.70
   0  -6  15   -3.50    2.70
   0  -6  15    2.40    2.00
   1  -6  15    6.80    2.90
   1  -6  15   18.20    3.80
   1  -6  15   17.70    3.90
  -1   6  15   13.30    3.30
  -1   6  15   15.70    3.30
   1  -6  15   16.90    4.20
  -1  -6  15   16.10    3.20
   1   6  15   18.20    4.30
  -1  -6  15   19.60    3.80
  -1  -6  15   11.00    3.70
   1  -6 -15   14.40    2.40
   1   6  15   18.70    3.50
   2  -6  15    3.00    2.50
  -2   6  15   -1.60    1.80
   2  -6  15    1.10    2.40
  -2   6  15    0.70    1.80
   2  -6  15    0.40    2.30
   2  -6  15    1.60    2.60
   2  -6 -15    1.30    1.90
  -2  -6  15    0.90    1.80
  -2  -6  15    3.90    4.40
  -2  -6  15   -1.20    2.40
  -2  -6  15   -1.50    1.80
  -2  -6  15    0.30    2.00
   2   6  15    1.90    2.00
  -2  -6  15    1.00    1.70
   3  -6  15   10.50    3.30
   3  -6  15   19.90    3.80
   3  -6  15   21.10    3.20
   3  -6  15    9.50    3.80
  -3   6  15   10.20    2.60
  -3   6 -15   29.40    6.00
   3   6  15   14.40    2.00
  -3  -6  15   11.90    2.80
  -3  -6  15   13.80    3.00
  -3  -6  15   17.90    3.30
  -3   6 -15   15.90    2.70
  -3  -6  15   14.40    2.50
   3   6  15   16.50    3.00
   4  -6  15    3.00    4.00
  -4   6  15    5.10    2.10
   4  -6  15    4.50    2.60
   4  -6  15    2.70    2.00
  -4  -6  15    7.90    2.00
   4   6  15    3.60    1.80
  -4   6 -15    6.00    1.90
  -4  -6  15    7.50    2.40
  -4  -6  15    7.70    2.50
  -4   6 -15    3.90    1.90
   5  -6  15    0.50    1.70
   5  -6  15    0.30    1.60
  -5   6  15   -0.10    1.70
   5  -6  15   -1.20    2.50
  -5  -6  15    1.40    1.80
   5   6  15    2.60    1.40
  -5  -6  15    0.30    1.90
  -5  -6  15    0.40    1.20
  -5   6 -15    2.40    1.60
  -5   6 -15    1.10    1.00
  -6   6  15    1.10    1.30
   6  -6  15    1.00    1.20
  -6  -6 -15    2.90    1.40
  -6  -6  15    2.50    1.60
  -6   6 -15    1.10    0.70
   6   6  15    2.30    1.40
  -6  -6  15    0.30    1.30
   0  -7  15   -1.00    2.50
   0  -7  15   -1.60    1.90
   0  -7  15    3.00    2.50
   0   7  15   -0.10    1.60
   0  -7  15   -0.20    1.70
   0   7  15    1.30    1.40
   0  -7  15    1.30    1.90
   1  -7  15    3.20    2.30
   1  -7  15   -1.40    2.30
  -1   7  15    0.80    1.70
   1  -7  15    2.50    2.50
  -1   7  15    0.50    1.70
  -1  -7  15    1.70    2.00
  -1  -7  15    0.80    2.50
  -1  -7  15    1.90    2.50
  -1  -7  15    2.50    2.00
   1   7  15    1.80    1.80
  -1  -7  15    1.90    1.50
   1   7  15    2.30    1.50
  -2   7  15   19.80    3.20
   2  -7  15   12.60    3.20
   2  -7  15   16.50    4.10
   2  -7  15   17.20    3.30
   2  -7  15   19.30    3.40
   2   7  15   22.80    2.70
   2   7  15   21.40    3.30
  -2  -7  15   18.90    3.80
  -2  -7  15   19.40    3.00
  -2  -7  15   20.90    3.30
  -2  -7  15   16.00    2.90
   3  -7  15   10.20    2.80
   3  -7  15   14.90    2.40
  -3   7  15   10.00    2.20
   3  -7  15   18.30    5.50
   3  -7  15    9.10    2.70
  -3   7 -15   12.60    2.00
   3   7  15   14.70    2.70
  -3  -7  15   22.10    3.40
   3   7  15   11.80    2.70
  -3  -7  15   17.30    2.50
  -3  -7  15   11.20    2.90
   4  -7  15    4.30    2.40
  -4   7  15    2.80    1.50
   4  -7  15    1.20    2.00
   4   7  15    1.40    1.50
  -4   7 -15    1.10    1.00
  -4  -7  15    5.30    2.30
  -4  -7  15    2.80    1.60
  -5   7  15    0.70    1.20
   5  -7  15    2.10    1.90
   5  -7  15    1.50    1.40
   5  -7  15    0.50    1.60
  -5  -7  15    1.80    1.40
  -5  -7  15    4.50    1.70
   5   7  15    3.70    1.50
  -5   7 -15    1.00    0.70
   0   8  15   -0.60    1.90
   0  -8  15    3.80    2.90
   0  -8  15    0.60    2.50
   0   8  15   -1.20    2.10
   0  -8  15    1.20    2.70
   0  -8  15    1.00    2.40
   1  -8  15    9.70    3.20
   1  -8  15    4.40    2.20
   1  -8  15   10.70    2.70
   1  -8  15   11.10    4.00
  -1   8  15    7.80    2.20
   1   8  15   10.50    2.10
  -1  -8  15   10.30    2.50
  -1  -8  15    4.40    1.90
  -1  -8  15   10.50    4.00
  -1  -8  15   12.20    2.60
   1   8  15   12.00    2.60
  -1  -8  15    7.60    3.60
   2  -8  15   18.70    3.10
  -2   8  15   19.40    2.80
   2  -8  15   13.40    3.00
   2  -8  15   28.10    5.70
  -2  -8  15   16.40    2.60
  -2  -8  15   19.90    5.10
   2   8  15   22.90    3.10
  -2  -8  15   17.80    2.80
   2   8  15   16.10    2.20
  -2  -8  15   21.60    2.60
   3  -8  15    7.10    4.30
   3  -8  15    4.20    2.10
  -3   8  15    6.80    1.90
   3  -8  15    2.30    2.40
  -3  -8  15    5.20    1.90
   3   8  15    2.70    1.80
  -3   8 -15    3.00    1.00
  -3  -8  15    8.30    1.80
  -3  -8  15    6.00    1.90
   4  -8  15    0.70    1.50
   4  -8  15    1.90    2.30
  -4   8  15    4.10    1.60
   4  -8  15    2.10    2.00
   4   8  15    2.40    2.50
  -4   8 -15    3.30    0.80
  -4  -8  15    3.10    1.60
  -5   8  15    0.70    0.70
   5  -8  15   -0.10    1.00
  -5  -8  15    0.80    1.00
  -5  -8  15   -0.40    1.30
   0   9  15    1.30    1.40
   0  -9  15    2.40    3.60
   0  -9  15    5.50    3.40
   0  -9  15    4.80    2.70
   1  -9  15    2.70    3.40
   1  -9  15    4.80    4.00
   1  -9  15    1.20    2.10
  -1   9  15    8.20    1.60
  -1  -9  15    1.60    4.10
  -1  -9  15   -1.00    5.10
   1   9  15    2.70    1.50
  -1  -9  15    3.20    2.70
  -2   9  15    0.60    1.20
   2  -9  15    1.20    2.60
   2  -9  15    1.70    1.90
   2  -9  15   -0.20    3.10
  -2  -9  15    1.30    1.50
   3  -9  15    2.10    1.40
   3  -9  15    3.10    2.80
  -3   9  15    2.70    1.40
   3  -9  15    3.10    1.60
  -3  -9  15    2.40    1.20
   0 -10  15    2.20    4.80
   0 -10  15   -0.30    3.20
   1 -10  15    4.90    4.60
   1 -10  15    1.40    2.40
   0   0 -16   17.90    2.70
   0   0  16   21.70    2.80
   0   0  16   21.30    2.70
   0   0  16   25.60    4.00
   0   0  16   26.10    3.50
  -1   0  16   58.29    5.40
   1   0  16   52.89    4.40
  -1   0 -16   45.10    4.50
  -1   0  16   63.39    5.30
   1   0  16   56.89    5.10
  -1   0  16   63.19    5.00
  -1   0  16   59.09    5.10
  -1   0  16   51.89    4.70
   1   0  16   56.79    5.20
   1   0  16   60.59    4.80
   1   0 -16   47.90    4.70
   2   0 -16   59.29    5.30
  -2   0  16   63.09    5.50
   2   0  16   65.79    5.00
  -2   0  16   74.89    5.00
  -2   0  16   57.69    5.10
   2   0  16   76.09    5.90
  -2   0 -16   65.49    5.10
  -2   0  16   66.69    5.50
   2   0  16   53.19    5.00
   2   0  16   55.99    6.70
  -3   0  16   -0.40    1.40
  -3   0  16    1.00    1.80
   3   0  16   -4.10    1.90
   3   0  16    0.90    1.70
  -3   0 -16   -0.80    1.50
  -3   0  16    1.30    1.80
   3   0 -16   -0.10    1.80
   3   0  16    1.30    1.60
  -3   0  16   -0.70    1.30
  -3   0  16   -0.80    2.00
   3   0  16    0.50    1.20
   4   0  16   35.20    4.00
  -4   0  16   34.30    3.60
  -4   0  16   34.50    4.50
   4   0  16   30.90    3.50
   4   0  16   35.40    4.30
  -4   0 -16   39.40    4.10
  -4   0  16   30.50    4.00
  -4   0  16   34.70    4.40
  -4   0  16   37.30    4.40
   4   0 -16   33.70    4.80
  -5   0 -16   22.20    4.20
  -5   0  16   17.70    3.00
   5   0  16   12.40    1.90
   5   0  16   10.50    2.70
  -5   0  16   19.50    3.50
  -5   0  16   20.50    3.00
  -5   0  16   18.40    3.20
  -5   0 -16   19.20    3.00
   5   0  16   16.60    2.90
   5   0 -16   19.00    3.40
  -5   0  16   13.80    2.20
   6   0 -16    4.00    2.30
  -6   0  16    3.00    1.80
  -6   0  16    4.30    1.30
  -6   0 -16    7.20    3.10
   6   0  16    5.00    2.20
  -6   0 -16    8.90    3.10
  -6   0  16    8.20    2.10
  -6   0  16    7.50    2.20
   7   0  16    9.50    2.00
  -7   0 -16   10.30    2.20
  -7   0  16    6.90    1.70
   7   0 -16   12.40    2.10
   0  -1  16    2.70    1.20
   0  -1 -16    2.00    1.80
   0   1  16    0.60    1.40
   0   1  16    2.10    1.40
   0   1  16    0.70    1.50
   0  -1  16    1.50    1.60
   0  -1  16    3.00    2.00
   0   1 -16   -0.20    1.50
   0   1  16   -1.10    1.20
   0  -1  16    1.70    1.90
   0   1  16   -2.00    1.30
   0  -1  16   -0.50    1.60
  -1   1  16   70.89    5.30
  -1  -1 -16   73.79    5.70
   1  -1  16   75.99    5.60
   1  -1  16   79.19    6.30
   1   1 -16   61.59    5.40
  -1   1  16   80.49    5.60
  -1   1  16   72.19    5.70
  -1   1  16   75.59    6.20
  -1   1  16   74.39    5.90
   1  -1  16   80.99    5.60
   1  -1  16   74.29    6.10
  -1  -1  16   76.79    5.10
   1   1  16   78.39    5.70
  -1  -1  16   74.79    6.20
  -1  -1  16   76.59    5.90
   1   1  16   79.89    5.90
  -1   1 -16   70.39    5.50
   1   1  16   74.19    6.00
  -1  -1  16   78.59    6.20
   1   1  16   80.29    5.30
  -1  -1  16   70.09    5.60
   2  -1  16   56.59    4.70
  -2   1  16   56.29    4.70
  -2  -1 -16   52.89    5.70
  -2   1  16   45.30    4.80
   2  -1  16   60.09    4.70
  -2   1  16   59.09    7.20
  -2   1  16   62.89    5.20
  -2   1  16   52.79    5.00
   2  -1  16   65.59    5.80
   2  -1  16   59.19    5.50
   2   1 -16   57.29    6.70
   2  -1 -16   52.39    5.30
   2   1  16   52.19    4.80
  -2  -1  16   58.09    5.60
  -2  -1  16   71.29    8.10
   2   1  16   59.49    5.20
  -2   1 -16   53.89    4.80
  -2  -1  16   59.09    4.20
  -2  -1  16   40.00    6.50
   2   1  16   54.99    4.30
   2   1  16   58.49    6.40
   2   1  16   60.39    5.00
  -2  -1  16   55.29    5.00
   3  -1  16   16.50    2.60
  -3   1  16   18.30    3.00
   3  -1  16   19.40    3.70
  -3   1  16   22.40    3.60
  -3   1  16   23.90    3.40
  -3  -1 -16   16.90    2.90
  -3   1  16   16.30    2.90
  -3   1  16   13.00    2.70
   3  -1  16   12.60    2.50
   3   1 -16   12.10    3.00
   3   1  16   21.20    3.40
   3   1  16   16.40    2.80
  -3  -1  16   15.40    2.20
   3   1  16   17.80    2.90
  -3  -1  16   18.50    3.10
   3  -1 -16   18.90    3.40
  -3  -1  16   26.40    4.10
  -3  -1  16   17.90    3.20
  -3  -1  16   20.60    3.20
  -3   1 -16   22.50    3.10
   4  -1  16   32.20    3.70
   4   1 -16   45.10    4.90
  -4  -1 -16   32.60    4.00
   4  -1  16   37.60    4.10
   4  -1  16   32.90    4.40
   4  -1  16   26.70    4.10
  -4   1  16   29.40    3.70
  -4   1  16   32.90    3.90
  -4   1  16   37.50    3.90
  -4   1  16   32.60    4.00
  -4   1  16   28.50    4.00
   4  -1 -16   35.00    4.90
  -4  -1  16   36.70    3.20
  -4  -1  16   39.90    4.50
  -4   1 -16   33.00    4.10
  -4  -1  16   32.60    4.30
  -4  -1  16   36.40    4.60
  -4  -1  16   32.60    4.20
   4   1  16   35.20    4.10
   4   1  16   40.60    4.30
  -5   1  16    0.70    1.60
  -5   1  16    1.50    2.70
  -5  -1 -16    2.00    2.60
   5  -1  16    2.40    1.90
  -5  -1 -16    3.20    1.70
   5  -1  16    1.20    1.20
   5   1 -16   -0.90    2.30
   5  -1  16    2.60    1.90
  -5   1  16   -2.20    2.50
  -5   1  16    1.20    1.90
  -5   1  16    3.80    1.90
   5   1  16    5.20    2.00
  -5   1 -16    2.80    1.90
  -5  -1  16   -3.20    2.10
  -5  -1  16    2.50    1.20
  -5  -1  16    2.70    2.10
  -5  -1  16    4.80    2.20
  -5  -1  16    0.00    1.80
   5   1  16    1.30    2.00
   5  -1 -16    4.00    2.50
   6   1 -16   10.40    2.60
  -6   1  16    7.90    1.70
  -6  -1 -16    4.50    2.20
  -6  -1 -16    8.80    2.50
  -6   1  16    7.80    1.90
   6  -1  16    6.20    2.20
  -6  -1 -16   10.50    1.80
   6  -1 -16   10.20    2.50
  -6  -1  16   10.00    2.50
  -6  -1  16    7.40    2.20
   6   1  16   11.90    2.80
  -6   1 -16    7.10    2.60
  -6   1 -16   10.40    2.00
  -7  -1 -16   12.20    2.20
  -7   1  16   11.50    1.90
  -7   1  16    9.00    1.40
   7   1 -16   14.20    2.20
  -7  -1 -16    5.90    2.10
  -7  -1  16   12.30    1.90
  -7   1 -16   11.70    2.30
  -7  -1  16    9.30    1.60
   7   1  16    9.50    2.10
   7  -1 -16   11.20    2.00
   0   2  16   67.19    5.60
   0   2  16   80.79    6.20
   0  -2  16   78.79    5.70
   0  -2  16   73.59    6.20
   0   2  16   66.59    5.20
   0  -2  16   71.19    4.60
   0  -2  16   77.19    6.20
   0   2  16   83.49    6.10
   0  -2 -16   68.69    5.60
   0   2  16   78.79    5.60
   0  -2  16   73.19    5.90
   0  -2  16   72.19    5.70
  -1   2  16   30.60    3.30
   1  -2  16   36.60    3.70
   1  -2  16   31.50    4.30
  -1   2  16   38.80    4.20
  -1   2  16   34.80    4.00
  -1   2  16   36.30    4.30
  -1  -2 -16   40.80    4.90
   1  -2  16   39.00    3.20
   1  -2  16   33.10    4.20
   1  -2  16   36.10    3.90
  -1   2  16   38.60    4.10
   1   2  16   34.90    3.80
   1   2  16   35.40    4.50
  -1  -2  16   34.00    2.80
  -1  -2  16   35.20    4.10
  -1  -2  16   36.90    4.60
   1   2  16   37.20    4.40
  -1   2 -16   34.70    4.00
  -1  -2  16   53.19    6.40
  -1  -2  16   36.30    4.00
   1   2  16   34.80    5.00
   1  -2 -16   29.10    4.00
  -1  -2  16   34.40    4.20
   2  -2  16   15.30    2.60
   2  -2  16   18.50    3.70
   2  -2  16   17.50    3.10
  -2  -2 -16   23.00    3.10
   2  -2  16   19.00    2.70
  -2   2  16   23.80    3.10
  -2   2  16   20.80    3.10
  -2   2  16   11.90    2.40
  -2   2  16   14.30    2.60
  -2   2  16   18.80    2.70
   2  -2  16   22.70    3.30
   2  -2  16   14.80    2.60
  -2  -2  16   16.70    2.90
   2   2  16   18.50    2.90
  -2  -2  16   16.30    3.40
   2   2  16   17.10    2.80
   2  -2 -16   17.90    3.20
  -2  -2  16   14.50    1.90
  -2  -2  16   14.20    2.70
  -2  -2  16   20.40    3.30
  -2  -2  16   21.20    3.90
   2   2  16   15.90    2.80
  -3   2  16    2.60    2.10
   3  -2  16    0.70    1.80
   3  -2  16   -0.20    2.40
  -3   2  16    1.90    1.90
   3   2 -16    2.40    2.20
  -3   2  16    1.10    1.80
   3  -2  16    4.80    2.20
  -3   2  16    3.40    2.40
  -3   2  16   -0.70    1.60
  -3  -2 -16    2.10    1.80
   3  -2  16    1.00    1.60
  -3  -2  16    2.90    3.30
   3   2  16    0.10    1.60
  -3  -2  16    3.50    2.30
   3  -2 -16    1.70    2.40
  -3  -2  16    0.70    1.80
   3   2  16    1.00    1.70
  -3   2 -16    1.30    1.80
  -3  -2  16    1.50    2.50
   3   2  16    4.30    1.90
  -4   2  16  110.79    7.60
   4  -2  16  108.89    8.20
  -4   2  16  103.49    7.90
   4  -2  16   95.29    7.90
   4  -2  16  113.09    8.50
   4  -2  16  104.99    7.80
  -4  -2 -16  112.79    7.60
  -4   2  16   96.09    7.40
   4   2 -16   79.89    9.10
  -4  -2  16  117.09    7.80
  -4  -2  16  112.19    8.10
  -4   2 -16  117.69    8.40
  -4  -2  16  100.89    7.60
   4  -2 -16  107.99    8.00
  -4  -2  16  107.89    8.20
   4   2  16  100.79    7.50
  -5   2  16    5.50    2.10
   5   2 -16    5.40    2.30
  -5   2  16    5.10    1.90
  -5   2  16    5.40    1.90
   5  -2  16    3.90    2.00
   5  -2  16    1.40    2.20
   5  -2  16    4.10    1.60
  -5  -2 -16    4.20    2.90
  -5  -2 -16    6.10    1.60
  -5  -2  16    5.10    2.50
   5   2  16    5.90    2.30
  -5  -2  16    3.70    2.10
  -5  -2  16    8.50    2.50
   5  -2 -16    7.70    2.60
  -5   2 -16    9.20    3.30
  -5   2 -16    7.20    2.10
  -5  -2  16    3.10    2.30
  -6  -2 -16   12.40    2.70
  -6   2  16    8.10    1.90
  -6  -2 -16   13.80    2.40
  -6   2  16    5.70    1.80
   6  -2  16    6.10    1.80
  -6  -2  16   12.90    2.50
  -6  -2  16    9.10    2.30
   6  -2 -16    6.20    2.20
  -6   2 -16    9.10    2.00
   6   2  16    5.60    2.10
  -6   2 -16    9.80    2.70
   7  -2  16    4.10    1.90
  -7   2  16    2.70    1.00
  -7  -2 -16    5.20    1.60
   7  -2  16    2.70    1.20
   7   2 -16    4.50    1.70
  -7   2  16    4.60    1.30
   7   2  16    5.70    1.80
   7  -2 -16    4.50    1.40
  -7  -2  16    6.00    1.50
  -7  -2  16    4.40    1.50
  -7   2 -16    6.60    1.90
  -7   2 -16    5.00    1.20
   0  -3  16   66.09    5.70
   0  -3  16   71.79    5.50
   0  -3  16   68.19    6.00
   0  -3  16   67.49    6.00
   0  -3 -16   67.59    5.40
   0  -3  16   75.09    5.80
   0   3  16   70.29    5.50
   0  -3  16   65.09    6.50
   0   3  16   72.69    5.90
   0   3  16   63.89    5.30
  -1   3  16   12.70    2.80
  -1  -3 -16   16.90    2.60
  -1   3  16   18.30    3.30
   1  -3  16   18.70    3.70
   1  -3  16   14.40    2.90
  -1   3  16   16.00    2.80
   1  -3  16   23.80    3.60
   1  -3  16   17.40    3.20
   1  -3  16   10.10    2.30
   1  -3  16   13.40    2.60
   1   3  16   24.20    3.40
  -1  -3  16   20.30    3.40
  -1  -3  16   21.10    3.70
  -1  -3  16   19.10    3.40
   1  -3 -16   15.60    2.70
  -1  -3  16   16.60    3.00
   1   3  16   23.80    3.00
  -1  -3  16   13.90    2.60
   1   3  16   17.10    3.10
  -2   3  16   48.90    4.50
   2  -3  16   56.09    5.10
   2  -3  16   70.89    6.00
  -2   3  16   66.69    5.50
  -2   3  16   59.09    5.30
   2  -3  16   63.99    5.40
  -2   3  16   62.79    5.50
  -2  -3 -16   65.29    5.00
   2  -3  16   63.29    6.20
   2  -3  16   57.39    4.20
   2  -3 -16   59.89    5.40
  -2  -3  16   67.19    6.10
  -2  -3  16   58.39    5.30
   2   3  16   59.69    5.00
   2   3  16   64.39    5.60
  -2  -3  16   65.19    5.40
  -2  -3  16   67.69    5.50
  -2   3 -16   54.79    5.00
  -2  -3  16   65.29    6.00
  -3   3  16   76.39    6.30
   3  -3  16   86.79    7.20
   3  -3  16   81.79    6.80
  -3   3  16   78.19    5.80
   3  -3  16   86.09    7.10
  -3   3  16   84.19    6.30
   3  -3  16   74.89    5.50
  -3   3  16   83.59    6.60
  -3  -3 -16   77.99    5.80
  -3  -3  16   82.99    7.00
   3   3  16   85.19    6.40
  -3  -3  16   84.09    6.60
   3  -3 -16   87.39    6.70
  -3  -3  16   83.59    6.50
  -3  -3  16   84.99    7.00
  -3   3 -16   81.59    6.00
   4  -3  16   71.89    6.20
  -4  -3 -16   68.89    5.10
   4   3 -16   62.19    6.40
   4  -3  16   69.69    6.30
  -4   3  16   65.09    5.70
   4  -3  16   74.89    5.20
  -4   3  16   69.69    5.80
  -4   3  16   57.69    5.40
  -4   3  16   64.19    5.50
   4  -3  16   68.29    5.90
  -4  -3  16   72.09    6.00
  -4  -3  16   69.79    5.90
  -4   3 -16   64.89    5.60
  -4  -3  16   74.59    6.40
   4  -3 -16   67.89    6.00
  -4  -3  16   74.39    6.40
   4   3  16   71.19    5.90
  -5   3  16   11.40    2.20
   5  -3  16    4.80    2.10
  -5   3  16    7.20    2.10
   5  -3  16    8.20    2.10
  -5  -3 -16   14.50    2.80
  -5  -3 -16   11.90    1.70
   5   3 -16    8.00    2.50
   5  -3  16    8.00    1.90
   5   3  16    8.40    2.40
   5  -3 -16   11.80    2.50
  -5  -3  16   15.50    2.80
  -5   3 -16   14.10    2.50
  -5  -3  16    7.40    2.40
  -5  -3  16   11.70    2.80
  -5   3 -16   16.60    4.30
   6  -3  16    3.90    1.30
   6  -3  16    2.80    1.30
  -6   3  16    4.90    1.60
   6   3 -16    3.50    1.80
  -6   3  16    4.90    1.90
  -6  -3 -16    4.80    1.80
   6  -3  16    5.00    2.80
   6   3  16    2.10    1.90
  -6   3 -16    8.10    2.10
  -6  -3  16    1.00    2.10
  -6  -3  16    7.90    2.10
  -6   3 -16    3.40    2.20
  -6  -3  16    6.20    2.10
  -7   3  16   10.30    1.40
   7   3 -16   10.60    1.90
  -7  -3 -16   12.90    1.80
   7  -3  16    8.00    1.70
  -7   3  16    9.20    1.40
   7   3  16    6.90    1.80
  -7  -3  16   15.10    2.00
  -7   3 -16   15.10    2.70
  -7  -3  16   15.20    2.20
   0  -4  16    0.60    2.10
   0   4  16    0.70    1.70
   0  -4  16    4.60    2.50
   0  -4  16    1.10    1.70
   0  -4  16    0.40    2.00
   0  -4 -16    2.40    1.80
   0  -4  16    1.60    2.90
   0   4  16    2.60    1.40
   0  -4  16    1.80    1.70
   1  -4  16  122.19    8.50
  -1   4  16  124.39    8.60
   1  -4  16  136.79    8.80
  -1   4  16  124.79    8.70
   1  -4  16  129.19    9.00
  -1  -4 -16  124.19    7.90
   1  -4  16  136.69    8.80
   1  -4  16  124.59    8.50
   1  -4  16  126.69    9.10
  -1  -4  16  122.19    9.10
  -1  -4  16  128.09    8.60
  -1  -4  16  126.09    8.50
  -1  -4  16  125.59    8.90
   1   4  16  128.79    8.70
  -1  -4  16  134.09    9.20
   1  -4 -16  127.59    8.20
  -2   4  16    5.30    1.80
   2  -4  16   13.20    3.20
   2  -4  16    5.60    2.60
  -2   4  16   12.20    2.70
  -2   4  16   12.60    2.70
  -2  -4 -16   11.00    2.30
   2  -4  16   11.40    3.40
   2  -4  16    7.70    2.00
   2  -4  16   10.10    2.60
   2  -4 -16   12.70    2.50
  -2  -4  16   14.00    3.20
   2   4  16   10.50    2.80
  -2   4 -16   14.80    2.60
  -2  -4  16   11.60    2.70
  -2  -4  16    5.50    2.40
  -2  -4  16   14.50    3.10
  -2  -4  16   10.30    2.40
   3  -4  16    0.70    3.10
  -3   4  16    1.00    1.70
   3  -4  16    6.50    3.60
   3  -4  16    6.10    3.50
  -3   4  16    5.00    2.40
   3  -4  16    6.30    3.10
  -3   4  16    5.40    1.50
  -3  -4  16    3.20    2.20
   3   4  16    6.50    3.10
  -3  -4  16    4.50    2.10
  -3  -4  16    6.50    2.80
  -3   4 -16    6.70    3.00
   3  -4 -16    4.90    2.80
  -3  -4  16    8.40    2.90
  -4   4  16   13.00    2.80
   4  -4  16   12.70    1.80
   4  -4  16   18.10    2.90
   4  -4  16   16.60    3.40
  -4   4  16   13.60    2.20
  -4  -4 -16   20.60    2.40
   4  -4  16   16.60    3.50
  -4   4  16   25.90    4.00
   4  -4  16   17.30    3.90
  -4  -4  16   17.30    3.50
   4  -4 -16   15.30    2.60
  -4   4 -16   24.10    3.10
   4   4  16   15.50    2.70
  -4  -4  16   20.60    3.60
  -4  -4  16   18.30    2.90
  -4  -4  16   13.70    2.90
  -5   4  16    3.90    1.90
   5  -4  16    3.50    1.90
   5   4 -16    0.00    1.90
   5  -4  16    3.20    1.80
   5  -4  16    2.30    2.40
   5  -4  16    2.00    2.20
   5   4  16    1.00    1.50
  -5   4 -16    4.30    2.60
  -5  -4  16    2.70    2.10
   5  -4 -16    1.60    1.50
  -5  -4  16    0.80    2.00
  -5  -4  16    1.00    1.70
  -5   4 -16    3.00    1.70
   6   4 -16    1.10    1.40
  -6   4  16    0.20    1.20
  -6  -4 -16    3.20    1.60
   6  -4  16    1.70    1.20
   6  -4  16    1.10    1.40
  -6   4  16    2.80    1.30
   6   4  16    1.30    1.50
  -6  -4  16    3.00    1.70
  -6  -4  16    1.90    1.40
  -6  -4  16    1.90    1.60
   6  -4 -16    0.10    1.30
  -6   4 -16    3.60    1.60
  -6   4 -16    4.30    2.50
   7  -4  16    3.30    1.10
  -7   4  16    2.30    0.90
  -7  -4 -16    2.10    1.20
   7   4 -16    3.80    1.30
   7   4  16    2.20    1.00
  -7  -4  16    3.80    1.30
  -7  -4  16    3.80    1.10
  -7   4 -16    2.50    1.00
   0  -5  16    1.70    2.10
   0   5  16    2.60    2.00
   0  -5  16    5.20    2.80
   0  -5  16    3.20    2.50
   0  -5  16    1.20    1.90
   0  -5 -16    2.00    1.60
   0  -5  16    2.90    2.00
   0  -5  16    3.70    2.40
   1  -5  16    0.70    2.50
  -1   5  16    2.20    1.90
  -1   5  16    3.20    1.60
  -1  -5 -16    2.70    1.60
   1  -5  16    3.70    2.50
   1  -5  16    1.80    2.00
   1  -5  16    0.50    1.90
   1  -5  16    0.00    2.20
  -1  -5  16    5.40    2.10
  -1  -5  16    1.00    2.00
  -1  -5  16    4.50    2.40
  -1  -5  16    0.70    2.40
   1  -5 -16    2.80    1.70
   1   5  16    3.30    2.00
  -1  -5  16    1.70    1.90
  -1  -5  16   -0.20    2.10
   2  -5  16    3.30    3.40
   2  -5  16   10.10    3.70
  -2   5  16    3.00    2.00
  -2  -5 -16    3.80    1.50
   2  -5  16    0.90    2.40
  -2  -5  16   -1.70    2.70
   2  -5 -16    3.80    2.20
  -2  -5  16    2.70    2.60
  -2  -5  16    5.10    2.50
   2   5  16    2.50    2.50
   3  -5  16    4.80    2.80
   3  -5  16    4.00    3.70
  -3   5  16    6.00    2.50
  -3   5  16    6.10    3.30
   3  -5 -16    4.70    1.80
  -3  -5  16    8.90    3.60
  -3   5 -16    6.80    2.40
  -3  -5  16   13.50    4.00
   3   5  16    6.70    2.30
   4  -5  16    3.40    1.70
   4  -5  16    5.50    2.40
   4  -5  16    4.70    2.50
   4  -5  16    2.40    3.90
  -4   5  16    6.90    2.30
  -4   5 -16    9.70    3.20
  -4   5 -16    4.60    1.90
  -4  -5  16    3.60    2.00
   4  -5 -16    3.00    1.50
  -4  -5  16    6.90    2.10
  -4  -5  16    6.40    2.40
   4   5  16    5.60    2.00
   5  -5  16    8.60    2.80
   5  -5  16    1.80    1.70
   5   5 -16    0.90    2.20
   5  -5  16    2.60    2.00
  -5   5  16    7.00    2.10
  -5   5 -16    4.50    2.00
   5   5  16    4.70    2.20
  -5  -5  16    7.80    2.30
  -5  -5  16    8.90    2.40
  -5  -5  16    4.30    2.20
  -5   5 -16    6.80    1.90
   6   5 -16    4.10    1.50
  -6  -5 -16    5.40    1.60
  -6   5  16    1.00    1.10
   6  -5  16    4.70    1.90
  -6  -5  16    5.60    1.50
  -6  -5  16    5.90    2.00
   6   5  16    5.30    1.70
  -6   5 -16    6.80    1.90
  -6  -5  16    6.20    1.60
   0  -6  16    3.20    2.50
   0   6  16    3.50    1.90
   0  -6  16    2.40    1.90
   0  -6  16    3.20    2.10
  -1   6  16   -1.20    1.40
   1  -6  16    0.60    2.10
   1  -6  16    1.90    2.30
  -1   6  16    2.70    2.10
   1  -6  16   -0.60    1.60
  -1  -6  16    0.30    1.80
  -1  -6  16    4.80    3.80
  -1  -6  16   -0.60    1.90
  -1  -6  16    1.60    2.40
  -1  -6  16    5.00    4.00
   1  -6 -16    0.40    1.20
  -1  -6  16   -0.80    3.00
   2  -6  16   -0.10    2.20
   2  -6  16    4.00    2.90
   2  -6  16    2.00    2.60
   2  -6  16    1.10    3.10
  -2   6  16    1.20    1.80
  -2   6  16    1.20    1.90
   2   6  16    2.40    1.90
  -2  -6  16    1.50    1.80
  -2  -6  16   -2.80    2.30
  -2  -6  16    1.00    2.00
  -2  -6  16    1.10    2.00
  -2  -6  16    1.30    2.10
   2  -6 -16    1.60    1.20
   3  -6  16    7.10    2.70
   3  -6  16   17.90    3.40
   3  -6  16    6.50    3.70
   3  -6  16    9.70    2.50
  -3   6  16   13.40    2.70
  -3  -6  16   19.80    3.30
  -3  -6  16   17.90    2.90
   3   6  16   11.10    2.40
  -3  -6  16   11.00    2.60
  -3   6 -16   11.70    2.60
  -3   6 -16   15.90    3.60
  -4   6  16    3.70    1.90
   4  -6  16    3.60    3.70
   4  -6  16    7.80    2.50
   4  -6  16    4.30    2.10
  -4  -6  16    3.10    1.90
   4   6  16    3.10    1.90
  -4   6 -16    2.60    1.50
  -4  -6  16    4.80    2.00
  -4  -6  16    6.40    2.50
  -4   6 -16    4.10    1.70
   5  -6  16    1.40    1.90
   5  -6  16    1.90    1.60
   5  -6  16   -1.60    1.20
  -5   6  16    0.70    1.30
  -5   6 -16    1.70    0.90
   5   6  16    0.50    1.20
  -5  -6  16    1.80    1.60
  -5  -6  16    3.10    1.20
  -5  -6  16    1.40    1.80
  -5   6 -16    3.20    1.70
  -6  -6 -16    0.70    0.90
  -6   6  16    1.10    1.00
   6  -6  16    1.80    1.20
  -6  -6  16    1.60    1.10
  -6   6 -16    0.50    0.60
  -6  -6  16    1.90    1.50
   6   6  16    0.60    1.60
   0  -7  16   11.60    2.80
   0  -7  16   10.10    2.90
   0  -7  16   15.70    3.00
   0   7  16   18.80    3.10
   0  -7  16   19.90    3.80
   0  -7  16   10.70    2.50
   1  -7  16   22.30    3.60
   1  -7  16   15.30    3.10
   1  -7  16   23.00    3.60
  -1   7  16   17.90    2.80
   1  -7  16   16.60    3.40
  -1  -7  16   13.60    2.80
   1   7  16   22.00    3.30
  -1  -7  16   14.90    2.80
  -1  -7  16   13.80    3.20
  -1  -7  16   16.60    3.30
  -1  -7  16   12.50    2.60
   2  -7  16    2.60    2.40
   2  -7  16    2.20    3.30
   2  -7  16    0.10    2.40
   2  -7  16    1.10    2.10
  -2   7  16    0.20    1.50
   2   7  16    1.40    1.60
  -2  -7  16    1.00    3.20
  -2  -7  16    1.20    1.70
  -2  -7  16    2.20    1.90
  -2  -7  16    1.60    1.90
   3  -7  16    1.70    2.30
   3  -7  16    1.30    4.60
   3  -7  16    1.60    2.00
   3  -7  16    2.30    1.30
  -3   7  16    0.00    1.90
  -3  -7  16    0.40    1.80
  -3  -7  16    0.60    1.60
  -3   7 -16    0.10    1.10
  -3  -7  16    2.50    2.20
   3   7  16    0.30    1.40
   4  -7  16    4.10    1.90
  -4   7  16    6.40    1.70
   4  -7  16    7.60    2.30
   4  -7  16    7.60    3.90
   4   7  16    5.50    1.70
  -4  -7  16    4.20    2.80
  -4  -7  16    4.30    1.80
  -4  -7  16    7.60    1.70
  -5   7  16    1.90    1.00
   5  -7  16    1.00    1.80
   5  -7  16    1.10    1.10
   5  -7  16    0.70    1.10
  -5  -7  16    0.80    1.20
  -5  -7  16    3.50    1.80
  -5   7 -16    1.30    0.70
   5   7  16    3.50    1.40
   0   8  16    9.50    2.20
   0  -8  16    9.40    3.30
   0  -8  16    9.80    3.50
   0  -8  16    7.80    2.40
   0  -8  16    6.80    3.00
   1  -8  16    6.50    2.70
   1  -8  16    9.60    3.00
  -1   8  16   13.80    2.30
   1  -8  16   10.60    2.20
   1  -8  16   16.60    4.80
  -1  -8  16    8.40    3.40
  -1  -8  16    5.80    1.70
  -1  -8  16    4.40    3.40
   1   8  16    9.80    2.50
  -1  -8  16   17.80    2.90
  -1  -8  16   10.50    2.50
   2  -8  16   -0.90    1.60
  -2   8  16    0.80    1.30
   2  -8  16    1.30    4.30
   2  -8  16    2.70    2.20
  -2  -8  16    3.30    1.70
   2   8  16    1.80    1.50
  -2  -8  16    3.60    1.60
  -2  -8  16    2.50    1.80
   3  -8  16   15.60    3.00
   3  -8  16   14.70    5.10
  -3   8  16   10.70    1.70
   3  -8  16   15.50    2.70
  -3  -8  16   18.30    2.50
  -3  -8  16    9.30    1.90
   3   8  16   11.40    1.90
  -3  -8  16   12.70    1.80
   4  -8  16   -0.10    1.40
  -4   8  16    1.90    0.80
   4  -8  16    2.00    2.20
   4  -8  16    1.80    1.50
  -4   8 -16   -0.20    0.90
  -4  -8  16   -0.50    1.40
  -4  -8  16   -0.10    1.30
   0   9  16   -0.10    1.30
   0  -9  16   -5.00    2.90
   0  -9  16   -1.80    2.60
   0  -9  16   -3.90    3.40
  -1   9  16    4.70    1.50
   1  -9  16    2.20    2.70
   1  -9  16   -2.20    3.30
   1  -9  16    0.80    1.80
   1   9  16    2.20    1.40
  -1  -9  16   -3.30    4.60
  -1  -9  16   -1.40    4.70
  -1  -9  16    2.80    3.30
   2  -9  16    5.20    3.20
  -2   9  16    2.80    1.40
   2  -9  16    3.10    2.60
   2  -9  16    4.40    1.90
   3  -9  16   -0.80    2.80
   3  -9  16    1.20    1.20
   3  -9  16    0.20    1.30
   0   0 -17    1.50    1.60
   0   0  17    0.00    2.00
   0   0  17    2.40    1.60
   0   0  17   -0.60    1.40
   0   0  17   -2.50    1.10
  -1   0  17   10.70    3.40
   1   0  17    7.60    1.80
  -1   0  17    8.60    2.70
   1   0  17    7.80    2.20
   1   0  17    9.60    2.60
   1   0  17    6.90    2.00
  -1   0  17   10.70    2.10
   1   0  17    4.10    1.70
  -1   0  17   12.90    3.10
   1   0 -17   10.10    2.50
  -1   0  17   15.80    3.10
   2   0  17   30.30    3.90
  -2   0  17   29.60    3.60
   2   0  17   20.50    3.20
  -2   0  17   26.30    3.90
   2   0  17   29.40    3.30
   2   0  17   27.50    3.60
   2   0  17   30.50    3.40
  -2   0 -17   31.10    3.80
   2   0 -17   27.50    3.80
  -2   0  17   28.90    3.20
  -2   0  17   30.20    3.90
  -2   0  17   31.80    4.10
  -3   0  17   74.29    5.30
   3   0  17   66.49    5.30
  -3   0  17   71.69    5.90
   3   0  17   74.89    5.70
   3   0 -17   72.29    6.20
  -3   0  17   73.89    6.30
  -3   0  17   74.59    6.10
   3   0  17   70.19    6.10
  -3   0 -17   69.39    5.80
  -3   0  17   77.99    6.10
   4   0  17   -1.30    2.00
   4   0 -17    1.40    2.20
   4   0  17    1.40    2.00
  -4   0  17    0.00    1.20
  -4   0  17    1.90    1.90
  -4   0  17    1.40    1.90
  -4   0  17   -1.00    1.90
   4   0  17    1.50    1.80
  -4   0  17    1.20    1.80
  -4   0 -17    0.90    1.70
   4   0  17   -0.10    1.60
  -5   0 -17    7.20    2.00
   5   0  17    7.10    2.10
  -5   0  17    7.40    2.30
  -5   0 -17   12.00    3.70
  -5   0  17    6.50    2.20
   5   0  17    1.90    2.00
  -5   0  17   13.00    2.40
   5   0 -17    6.90    2.60
  -5   0  17    5.30    1.40
  -6   0 -17   -0.50    1.60
  -6   0  17    0.40    1.90
  -6   0  17   -0.30    0.80
   6   0 -17    1.30    2.00
  -6   0 -17   -0.70    2.00
   6   0  17    1.60    1.80
  -6   0  17   -0.10    1.40
  -6   0  17    1.30    1.30
   7   0 -17   25.80    2.80
  -7   0  17   28.50    2.50
  -7   0 -17   24.20    3.30
   7   0  17   20.00    2.50
   0  -1 -17    1.00    2.20
   0   1  17   -0.90    1.20
   0  -1  17   -0.20    1.40
   0  -1  17    0.40    1.20
   0  -1  17   -0.90    2.20
   0   1  17   -0.70    1.80
   0  -1  17    0.50    1.70
   0  -1  17    1.30    2.10
   0   1 -17    3.00    1.70
   0  -1  17   -9.70    4.70
   0   1  17    0.90    1.50
   0   1  17   -3.00    1.30
   0   1  17    2.00    1.50
   1  -1  17   11.60    2.10
  -1  -1 -17   20.80    2.90
  -1   1  17   19.00    3.40
  -1   1  17   15.50    2.90
  -1   1  17    9.40    2.10
   1  -1  17   15.20    2.50
  -1   1  17   16.10    3.70
   1   1 -17   13.80    2.70
   1  -1  17   18.40    3.30
  -1   1  17   14.60    3.00
   1  -1  17   14.20    3.20
   1  -1  17   12.30    2.40
   1   1  17   17.20    2.90
   1   1  17   12.80    2.10
   1  -1 -17   14.40    2.90
   1   1  17   14.70    2.70
   1   1  17   18.90    3.10
  -1  -1  17   17.70    3.50
   1   1  17   10.80    2.50
  -1   1 -17   14.50    3.00
  -1  -1  17   12.80    2.90
  -1  -1  17   12.50    2.60
  -1  -1  17   13.80    2.50
  -2   1  17  106.49    7.00
  -2   1  17   85.79    6.90
  -2   1  17   88.59    6.60
   2  -1  17   93.29    6.90
   2  -1  17  101.19    6.70
   2  -1  17  103.29    7.00
   2   1 -17   88.79    6.80
   2  -1  17   94.79    7.40
  -2   1  17   99.69    7.30
   2  -1  17   96.09    6.80
  -2   1  17   93.89    7.40
  -2  -1 -17   99.89    6.90
   2   1  17  113.89    7.10
   2  -1 -17   95.89    7.20
  -2  -1  17  101.89    6.10
   2   1  17   93.79    7.10
  -2  -1  17   99.69    7.20
  -2   1 -17   95.79    6.80
  -2  -1  17   98.39    7.50
   2   1  17   88.19    7.70
  -2  -1  17  105.19    7.20
  -2  -1  17  101.39    7.70
   2   1  17  104.79    7.30
   2   1  17  102.29    8.60
   3  -1  17   42.40    4.70
  -3   1  17   38.90    4.40
  -3   1  17   37.60    4.40
  -3   1  17   39.00    4.10
  -3   1  17   39.20    4.50
   3  -1  17   39.10    4.20
  -3   1  17   38.90    6.90
   3   1 -17   32.30    4.40
   3  -1  17   33.40    3.90
  -3  -1 -17   43.10    4.40
   3   1  17   36.70    4.80
  -3  -1  17   39.10    3.30
  -3  -1  17   36.60    4.30
   3  -1 -17   38.50    4.80
  -3  -1  17   39.90    4.90
   3   1  17   37.80    4.50
   3   1  17   42.50    4.20
  -3  -1  17   44.30    5.10
  -3   1 -17   33.80    4.20
  -3  -1  17   44.30    4.60
  -4   1  17    0.60    1.50
   4  -1  17    2.30    2.00
  -4   1  17    2.80    2.30
  -4   1  17    2.80    2.80
  -4  -1 -17   -1.30    1.60
  -4   1  17    2.70    2.00
   4  -1  17    1.00    1.90
   4   1 -17    0.00    2.10
  -4   1  17   -1.10    1.70
   4  -1  17    7.80    2.70
   4  -1  17    3.40    1.60
  -4  -1  17    0.10    1.70
  -4  -1  17    1.20    1.80
   4  -1 -17    0.30    2.20
  -4  -1  17    2.80    2.30
  -4  -1  17   -0.30    1.60
  -4   1 -17    2.30    1.90
  -4  -1  17    1.30    1.90
   4   1  17    0.70    1.70
  -5   1  17    5.20    1.90
  -5  -1 -17    0.90    2.60
  -5  -1 -17    3.90    1.70
   5   1 -17    3.90    2.30
  -5   1  17    2.50    1.40
  -5   1  17    1.30    1.60
   5  -1  17    1.80    1.80
   5  -1  17    0.00    1.60
   5  -1  17    3.60    1.30
  -5   1  17    0.10    2.60
  -5  -1 -17    5.10    3.20
  -5   1 -17    4.80    1.90
  -5  -1  17    2.30    2.10
   5  -1 -17    3.50    2.30
  -5   1 -17    3.70    2.70
  -5  -1  17    3.90    2.10
   5   1  17    2.50    2.00
  -5  -1  17    3.70    2.00
   5   1  17    3.30    1.70
  -6   1  17    9.70    2.20
  -6  -1 -17    4.40    2.00
  -6   1  17    8.40    1.70
  -6  -1 -17   12.20    1.70
  -6  -1 -17   14.90    2.60
   6   1 -17    7.90    2.70
  -6   1 -17   12.60    2.50
  -6  -1  17   12.40    2.20
   6   1  17    6.90    2.50
  -6   1 -17   11.10    2.80
   6  -1 -17    8.50    2.40
  -6  -1  17   12.80    2.30
  -6  -1  17   15.40    2.60
   7  -1  17    2.70    1.40
   7  -1  17    0.60    0.80
   7   1 -17    2.20    1.40
  -7   1  17    2.10    1.10
   7   1  17   -0.70    1.00
  -7  -1  17    3.00    1.20
  -7   1 -17    3.90    2.90
   7  -1 -17    3.40    1.30
   0   2 -17    1.00    1.80
   0  -2  17    2.10    1.60
   0   2  17    3.70    2.40
   0   2  17    5.00    2.00
   0   2  17    5.10    2.20
   0  -2  17    0.50    3.00
   0  -2  17    3.30    1.90
   0  -2  17    1.40    2.70
   0  -2 -17    2.20    1.80
   0   2  17    3.90    2.80
   0  -2  17    2.00    1.10
   0  -2  17    2.50    2.00
   0   2  17    3.80    2.20
   0  -2  17    2.60    2.10
   1  -2  17   19.40    3.80
  -1   2  17   25.10    3.90
   1  -2  17   17.20    2.80
   1  -2  17   19.80    3.50
   1  -2  17   22.10    2.50
   1  -2  17   25.00    3.80
   1  -2  17   22.50    3.50
  -1  -2 -17   21.60    3.10
  -1   2  17   22.30    3.70
  -1   2  17   19.60    3.00
   1   2  17   20.30    3.30
  -1  -2  17   27.50    4.10
   1   2  17   20.10    3.20
  -1  -2  17   21.10    3.30
   1   2  17   22.00    3.20
   1  -2 -17   19.50    3.10
  -1  -2  17   16.60    2.90
  -1  -2  17   20.30    3.50
   2  -2  17   42.60    5.30
  -2   2  17   40.50    4.70
  -2   2  17   45.60    4.40
   2  -2  17   42.80    4.40
   2  -2  17   46.20    3.80
  -2   2  17   43.10    4.40
  -2  -2 -17   43.10    4.40
  -2   2  17   39.70    3.80
   2  -2  17   34.90    4.10
  -2   2  17   48.60    5.00
   2   2 -17   28.60    4.30
   2  -2  17   48.00    5.00
   2   2  17   43.20    4.40
   2   2  17   43.50    4.50
  -2  -2  17   41.20    5.10
  -2   2 -17   34.30    4.10
  -2  -2  17   51.39    4.80
   2  -2 -17   44.10    5.00
  -2  -2  17   40.50    4.60
  -2  -2  17   50.29    5.10
  -2  -2  17   42.30    4.70
   2   2  17   44.40    4.50
  -3   2  17  204.58   12.30
   3  -2  17  218.18   13.40
   3   2 -17  185.68   12.50
   3  -2  17  209.48   13.00
  -3   2  17  220.28   12.90
  -3  -2 -17  213.58   12.30
   3  -2  17  230.18   12.40
  -3   2  17  219.18   13.00
  -3   2  17  217.78   13.00
   3  -2  17  219.88   12.70
  -3  -2  17  214.58   13.30
   3   2  17  221.88   13.00
  -3  -2  17  202.28   12.90
  -3  -2  17  223.08   13.40
   3   2  17  213.78   12.80
  -3  -2  17  224.48   13.00
   3  -2 -17  217.98   12.90
  -3   2 -17  214.08   12.50
   3   2  17  204.98   12.60
  -4   2  17    7.30    2.20
  -4  -2 -17    4.80    2.20
  -4   2  17    4.00    2.00
   4   2 -17    3.30    2.10
   4  -2  17    3.90    3.10
   4  -2  17    4.90    2.00
  -4   2  17    3.50    2.00
  -4  -2  17    2.10    2.00
  -4  -2  17    2.80    2.10
  -4  -2  17    4.90    2.90
  -4  -2  17    3.30    2.10
  -4   2 -17    6.30    3.10
   4  -2 -17    5.60    2.60
   4   2  17    2.40    1.80
  -5   2  17    5.20    1.70
   5  -2  17    5.90    2.10
  -5   2  17    5.50    1.80
   5   2 -17    8.20    2.40
  -5  -2 -17    7.00    2.50
  -5   2  17    6.00    2.80
   5  -2  17    4.70    1.70
   5  -2  17    7.80    2.20
  -5  -2 -17    9.00    1.80
  -5   2 -17    7.00    2.00
  -5  -2  17    8.00    2.40
   5  -2 -17    7.70    2.40
  -5   2 -17   11.30    3.30
  -5  -2  17    8.60    2.40
   5   2  17    3.70    1.90
   5   2  17    5.70    2.20
  -5  -2  17   10.20    2.50
  -6   2  17    5.00    1.60
  -6   2  17    3.70    1.90
  -6  -2 -17    5.30    1.80
   6   2 -17    3.90    1.80
  -6  -2 -17    2.50    2.00
   6  -2  17    2.70    1.40
   6  -2 -17    6.80    2.40
  -6   2 -17    5.10    1.80
  -6  -2  17    7.00    2.00
  -6  -2  17    5.80    2.00
   6   2  17    5.50    2.10
  -6  -2  17    7.90    2.10
  -6   2 -17    5.00    2.30
  -7   2  17   14.90    1.60
   7  -2  17   10.10    1.80
  -7   2  17   10.20    1.30
   7   2 -17   16.70    2.30
   7  -2  17    8.90    1.20
  -7  -2  17   16.20    1.90
  -7   2 -17   17.00    2.70
  -7   2 -17   13.90    1.50
   7  -2 -17   15.30    1.50
  -7  -2  17   12.60    2.20
   7   2  17    7.10    1.50
   0  -3  17   83.29    6.90
   0   3  17   93.59    6.90
   0   3  17   83.39    6.00
   0  -3  17   96.09    6.70
   0  -3  17   88.29    6.60
   0  -3  17   94.59    7.10
   0  -3 -17   82.39    6.20
   0   3  17   88.19    6.60
   0  -3  17   83.39    6.60
   0  -3  17   82.59    7.30
   0   3  17   90.79    6.90
  -1   3  17   15.90    3.00
   1  -3  17   15.90    3.10
  -1   3  17   14.70    2.70
  -1   3  17   18.40    3.60
   1  -3  17   13.60    3.20
   1  -3  17   16.10    3.40
  -1  -3 -17   16.50    2.70
   1  -3  17   15.40    2.70
   1  -3  17   15.40    3.40
   1  -3  17   18.10    3.50
  -1  -3  17   14.00    2.70
   1  -3 -17   13.70    2.60
  -1  -3  17   18.00    3.70
  -1  -3  17   19.40    3.60
  -1   3 -17   11.40    2.60
   1   3  17   16.10    2.90
   1   3  17   16.10    2.50
  -1  -3  17   17.00    3.20
  -1  -3  17   17.90    3.80
   1   3  17   16.20    3.00
   2  -3  17   67.99    6.00
  -2  -3 -17   64.79    5.20
   2  -3  17   68.69    5.60
   2  -3  17   68.59    6.60
  -2   3  17   70.69    5.70
  -2   3  17   66.09    5.70
  -2   3  17   58.29    4.80
  -2   3  17   65.89    5.70
   2  -3  17   57.79    5.20
   2  -3  17   72.99    6.30
   2  -3  17   64.69    4.20
  -2   3 -17   64.99    5.20
   2   3  17   65.69    5.60
  -2  -3  17   72.49    6.00
  -2  -3  17   69.79    5.70
  -2  -3  17   62.59    6.10
   2   3  17   64.99    5.60
   2   3  17   64.99    5.20
   2  -3 -17   69.89    5.70
  -2  -3  17   66.39    6.30
  -3   3  17   15.40    2.50
  -3   3  17   11.50    3.60
  -3   3  17   21.60    3.70
   3  -3  17   18.40    4.80
   3  -3  17   11.20    2.00
   3   3 -17    6.80    3.00
  -3   3  17   14.80    3.10
  -3  -3 -17   15.80    3.50
  -3  -3  17   20.20    3.90
  -3  -3  17   14.70    3.00
   3   3  17   13.30    3.40
   3  -3 -17   17.40    4.30
  -3  -3  17   18.50    4.90
   3   3  17   18.70    3.30
  -3   3 -17   19.40    3.60
  -3  -3  17   14.10    3.60
   4  -3  17    8.60    2.80
   4  -3  17    4.80    2.00
  -4   3  17    2.10    2.10
  -4   3  17    8.10    1.80
  -4   3  17    6.70    2.20
   4   3 -17    3.90    2.30
  -4  -3 -17    7.00    1.80
   4  -3  17    8.60    1.80
  -4   3  17    8.80    1.90
   4  -3  17    6.30    2.60
  -4  -3  17    8.80    2.50
  -4  -3  17   10.90    2.70
   4  -3 -17    7.10    2.40
  -4   3 -17   10.40    2.40
  -4  -3  17   10.40    2.80
  -4  -3  17    8.50    2.70
   4   3  17    4.00    2.10
  -5  -3 -17    5.50    2.20
   5   3 -17    7.30    2.60
  -5  -3 -17    6.00    1.40
  -5   3  17    3.00    1.60
  -5   3  17    5.90    1.70
   5  -3  17    4.50    2.00
   5  -3  17    5.90    1.60
   5  -3  17    3.80    2.40
   5  -3  17    6.00    2.10
  -5  -3  17    7.20    2.10
  -5  -3  17    9.10    2.50
  -5  -3  17    5.90    2.40
   5  -3 -17    3.50    2.00
  -5   3 -17    7.50    2.10
  -5   3 -17    8.40    2.90
   5   3  17    4.50    2.00
  -6   3  17    6.50    1.60
  -6   3  17    8.40    1.60
   6  -3  17    7.30    1.20
  -6  -3 -17    9.80    1.80
   6   3 -17    5.30    1.70
   6  -3  17    4.00    1.80
  -6  -3  17    7.70    2.20
  -6   3 -17    8.30    1.70
   6   3  17    7.40    2.00
  -6  -3  17    7.90    1.80
  -6  -3  17    4.50    1.80
  -6   3 -17   12.90    3.10
   6  -3 -17    7.10    1.60
   7   3 -17    1.30    1.10
   7  -3  17    2.30    1.30
  -7   3  17    1.90    0.70
  -7   3 -17    3.10    0.90
  -7  -3  17    3.50    1.30
  -7  -3  17    2.80    1.00
   7   3  17    0.90    0.80
   0   4  17    1.50    1.40
   0  -4  17    2.70    2.00
   0  -4  17    2.60    2.40
   0  -4  17    4.10    2.10
   0  -4 -17    3.00    1.80
   0  -4  17    5.30    2.30
   0   4  17    1.70    1.90
   0  -4  17    5.50    2.50
   0  -4  17    2.80    2.40
   1  -4  17   23.50    3.90
   1  -4  17   20.10    3.70
  -1   4  17   17.30    3.30
   1  -4  17   12.90    2.70
  -1  -4 -17   16.20    2.60
  -1   4  17   11.90    2.40
   1  -4  17   17.50    3.20
   1  -4  17   18.50    3.90
  -1  -4  17   14.20    2.90
  -1  -4  17   23.50    3.80
   1   4  17   20.30    3.40
   1  -4 -17   20.70    3.00
  -1  -4  17   19.50    3.20
  -1  -4  17   19.20    3.70
   1   4  17   15.40    3.10
  -1  -4  17   14.70    4.10
  -2   4  17    0.30    1.60
   2  -4  17    0.40    2.50
   2  -4  17    1.30    2.50
   2  -4  17    1.90    2.10
   2  -4  17    0.80    2.30
  -2  -4 -17    2.20    2.10
   2  -4  17    0.70    1.90
  -2   4  17   -2.40    1.30
  -2  -4  17    0.70    1.90
  -2  -4  17   -1.40    2.00
   2   4  17    1.50    1.90
   2  -4 -17    0.40    1.80
  -2  -4  17   -0.60    1.60
  -2  -4  17    2.20    2.20
  -2  -4  17    3.30    3.40
   3  -4  17    7.10    3.70
  -3   4  17    4.60    2.50
  -3  -4 -17    4.40    2.10
   3  -4  17    2.80    2.80
   3  -4  17    6.10    4.40
   3  -4  17    0.80    3.70
  -3   4  17    3.40    1.90
  -3  -4  17    4.20    2.00
  -3  -4  17    2.30    2.30
  -3  -4  17    2.40    2.00
  -3  -4  17    2.70    2.40
  -3   4 -17    0.20    1.70
   3   4  17    3.60    2.80
   3  -4 -17    5.60    3.00
   4  -4  17    8.70    3.70
   4  -4  17   13.90    3.40
  -4  -4 -17   11.60    2.50
  -4   4  17   11.40    2.40
   4  -4  17   20.50    3.10
  -4   4  17   13.00    2.80
   4  -4  17   11.10    2.80
  -4   4 -17   18.40    2.80
  -4  -4  17   18.60    3.30
  -4  -4  17   15.50    3.10
   4   4  17   11.80    2.60
  -4  -4  17   16.10    2.60
   4  -4 -17   14.70    2.40
  -5   4  17    1.30    1.40
   5   4 -17    2.50    1.70
  -5   4  17   -0.50    0.90
   5  -4  17   -1.60    1.90
   5  -4  17    2.20    1.70
   5  -4  17    0.00    2.00
  -5  -4  17    2.30    1.80
  -5   4 -17   -0.10    1.50
  -5  -4  17    0.40    1.60
  -5  -4  17    2.60    1.90
   5  -4 -17    2.20    1.70
  -5   4 -17   -0.80    2.00
   5   4  17   -1.00    1.30
   6   4 -17   11.30    1.80
  -6  -4 -17   10.30    2.10
   6  -4  17   10.40    2.20
  -6   4  17    8.70    1.50
  -6  -4  17   12.50    2.30
  -6  -4  17   11.40    2.00
  -6   4 -17    9.90    2.10
  -6  -4  17   11.00    2.00
   6   4  17    7.50    1.80
   0  -5  17    3.00    2.30
   0  -5  17    3.80    2.40
   0  -5  17    9.30    3.40
   0   5  17    6.10    2.00
   0  -5  17    4.20    2.60
   0   5  17    8.70    2.60
   0  -5  17    6.00    2.60
   0  -5 -17    4.40    1.70
   0  -5  17    5.10    2.20
  -1   5  17   19.60    3.50
  -1   5  17   20.70    3.30
   1  -5  17   17.40    3.00
   1  -5  17   19.30    3.60
  -1  -5 -17   22.40    2.80
   1  -5  17   17.50    3.20
   1  -5  17   16.30    3.50
   1  -5  17   14.00    3.10
  -1  -5  17   17.90    2.90
  -1  -5  17   18.90    3.50
  -1  -5  17   16.00    2.70
   1  -5 -17   20.70    2.90
   1   5  17   20.40    3.30
  -1  -5  17   18.00    3.50
  -1  -5  17   12.80    3.10
   2  -5  17   46.80    5.90
  -2   5  17   33.40    4.90
   2  -5  17   39.90    6.60
  -2  -5 -17   41.10    3.40
   2  -5  17   60.39    7.20
   2  -5 -17   48.00    4.60
   2   5  17   43.00    6.20
  -2  -5  17   37.60    4.60
  -2   5 -17   45.00    4.50
  -2  -5  17   40.70    5.60
  -2  -5  17   24.40    4.90
   3  -5  17    1.90    2.50
  -3   5  17    2.20    1.70
   3  -5  17    3.60    2.60
   3  -5  17    2.00    3.40
   3  -5  17    2.30    2.40
  -3   5 -17    2.90    1.90
  -3  -5  17    2.40    2.10
  -3  -5  17    0.00    1.80
  -3  -5  17    2.00    2.10
   3  -5 -17    1.80    1.40
   3   5  17    4.20    2.00
   4  -5  17    4.70    2.30
   4  -5  17    3.80    2.20
   4  -5  17    5.10    4.10
  -4   5  17    3.40    1.70
   4  -5  17    3.40    1.70
  -4   5 -17    6.70    2.10
   4   5  17    3.10    1.60
  -4  -5  17    5.50    2.30
  -4   5 -17    7.00    3.00
  -4  -5  17    5.30    2.00
   4  -5 -17    3.30    1.90
  -4  -5  17    2.50    2.10
  -5   5  17    2.00    1.30
   5  -5  17    0.20    1.40
   5   5 -17    5.50    1.90
   5  -5  17    2.20    2.00
   5  -5  17    2.90    2.20
  -5  -5  17    3.20    1.80
   5   5  17    2.70    1.60
  -5   5 -17    4.00    1.90
  -5  -5  17    4.10    1.70
  -5   5 -17    4.10    1.40
  -5  -5  17    5.10    2.10
   6  -5  17    0.10    1.20
  -6   5  17    0.60    0.90
  -6  -5 -17    2.20    1.00
  -6   5 -17   -0.10    0.60
  -6  -5  17    0.70    1.40
  -6  -5  17    0.20    1.30
   6   5  17    1.80    0.90
  -6  -5  17    1.60    0.90
   0  -6  17    6.20    2.40
   0  -6  17    5.60    2.80
   0   6  17    3.00    2.00
   0  -6  17    3.50    2.10
   0  -6  17    4.40    2.30
   0  -6  17    7.40    2.50
   0   6  17    4.00    1.90
   1  -6  17    7.30    2.90
   1  -6  17    8.30    2.80
   1  -6  17    7.00    2.50
  -1   6  17    6.90    2.30
   1  -6  17    7.60    2.80
  -1   6  17    4.80    2.50
  -1  -6  17    1.60    2.40
  -1  -6  17   12.10    4.20
  -1  -6  17    8.40    3.10
   1   6  17    7.60    2.40
  -1  -6  17    8.10    2.50
  -1  -6  17    8.10    2.40
   2  -6  17   21.40    3.90
   2  -6  17   39.50    4.90
   2  -6  17   34.30    4.20
   2  -6  17   43.40    5.00
  -2   6  17   32.00    3.90
  -2  -6  17   32.50    4.20
  -2  -6  17   34.90    4.20
   2   6  17   34.90    4.00
  -2  -6  17   38.60    4.20
   3  -6  17    6.10    2.40
   3  -6  17   13.40    3.00
   3  -6  17   13.50    2.50
   3  -6  17   12.20    4.60
  -3   6  17    9.20    2.30
   3   6  17    6.30    1.90
  -3  -6  17    7.20    2.30
  -3   6 -17   11.30    2.20
  -3  -6  17    9.40    2.60
  -3   6 -17   15.10    3.40
  -3  -6  17    6.50    2.10
  -4   6  17   20.90    3.40
   4  -6  17   21.00    5.00
   4  -6  17   13.60    2.90
   4  -6  17   20.80    3.40
   4   6  17   14.60    2.60
  -4   6 -17   24.50    2.90
  -4   6 -17   18.10    2.50
  -4  -6  17   25.20    3.70
  -4  -6  17   19.20    3.20
  -4  -6  17   26.30    3.10
   5  -6  17    0.40    1.40
  -5   6  17    0.60    1.10
   5  -6  17   -0.60    1.30
   5  -6  17    1.20    1.30
  -5  -6  17    0.10    1.40
   5   6  17    0.70    1.20
  -5  -6  17    2.00    1.20
  -5   6 -17    0.70    0.70
  -5  -6  17    1.40    1.30
   0  -7  17   -1.60    1.80
   0  -7  17    1.40    2.50
   0  -7  17    0.60    3.30
   0  -7  17   -0.20    1.40
   0  -7  17    0.60    2.00
   0   7  17    1.60    1.60
   1  -7  17    4.80    2.60
  -1   7  17    7.90    2.10
   1  -7  17    8.50    2.90
   1  -7  17   10.20    2.90
   1  -7  17    7.20    2.30
  -1  -7  17    8.80    3.00
  -1  -7  17   14.70    3.30
  -1  -7  17   10.40    2.50
  -1  -7  17   12.30    2.90
  -1  -7  17    7.40    2.30
   1   7  17    9.70    2.30
   2  -7  17   10.80    2.70
   2  -7  17   11.30    4.20
   2  -7  17   10.40    2.70
  -2   7  17    4.90    1.80
   2  -7  17    6.90    2.70
  -2  -7  17    4.60    2.60
  -2  -7  17   10.20    2.60
   2   7  17    8.60    2.40
  -2  -7  17    7.00    2.20
  -2  -7  17    8.00    2.40
   3  -7  17    8.80    5.20
   3  -7  17   10.20    2.70
   3  -7  17    3.70    2.00
  -3   7  17    4.20    1.60
  -3   7 -17    3.80    1.10
  -3  -7  17    4.60    1.90
  -3  -7  17    6.80    1.80
   3   7  17    8.40    2.00
  -3  -7  17    5.90    2.20
  -4   7  17    0.80    1.00
   4  -7  17    0.30    1.30
   4  -7  17    1.20    3.00
   4  -7  17    2.60    1.60
  -4  -7  17    1.20    1.40
   4   7  17    0.60    1.10
  -4  -7  17    1.40    2.00
  -4  -7  17    1.80    1.20
  -4   7 -17   -0.30    0.70
  -5   7  17    0.80    0.80
   5  -7  17    0.70    1.10
  -5  -7  17    0.80    1.10
  -5   7 -17    1.40    0.60
  -5  -7  17    2.20    1.30
   0  -8  17    3.70    2.10
   0  -8  17   -1.50    2.20
   0  -8  17   -1.70    1.90
   0  -8  17    0.90    2.30
   0   8  17    1.70    1.50
   1  -8  17    3.00    2.40
   1  -8  17    8.40    2.30
   1  -8  17    5.60    1.80
  -1   8  17    7.50    1.80
   1  -8  17    4.60    3.80
  -1  -8  17    4.10    2.10
  -1  -8  17    5.90    2.30
  -1  -8  17    4.50    1.60
  -1  -8  17    4.90    3.00
  -1  -8  17    2.00    3.60
   1   8  17    3.80    1.30
  -2   8  17    5.80    1.40
   2  -8  17    4.10    2.30
   2  -8  17    2.60    1.90
   2  -8  17    5.60    4.00
  -2  -8  17    2.40    1.40
  -2  -8  17    5.10    1.70
   2   8  17    4.90    1.70
  -2  -8  17    6.00    2.00
   3  -8  17    6.80    3.50
  -3   8  17    2.30    1.20
   3  -8  17    4.00    1.70
   3  -8  17    2.50    1.80
  -3  -8  17    4.90    1.70
   3   8  17    1.30    1.30
  -3  -8  17    2.20    1.40
  -3  -8  17    3.30    2.30
  -4   8  17    4.10    1.10
   4  -8  17    2.90    1.30
   4  -8  17    5.70    1.20
   4  -8  17    3.00    2.30
  -4  -8  17    4.90    2.10
  -4  -8  17    1.80    1.20
   0  -9  17    2.10    2.70
   0   9  17    0.20    1.30
   0  -9  17    0.00    2.90
   0  -9  17    1.60    3.60
   1  -9  17    3.70    1.90
   1  -9  17    2.00    3.20
  -1   9  17   -0.40    1.20
   1  -9  17    1.40    2.60
   2  -9  17    4.10    1.70
   2  -9  17    4.20    1.70
   2  -9  17    2.30    2.70
   0   0  18    0.70    2.00
   0   0  18   -0.60    1.30
   0   0  18    2.00    1.80
   0   0  18    1.70    1.60
   0   0  18    1.40    1.90
   0   0 -18   -1.50    1.50
   1   0  18  121.29    7.70
  -1   0 -18  112.09    7.80
  -1   0  18  122.79    7.90
  -1   0  18  111.09    8.20
   1   0 -18  110.89    8.00
   1   0  18  122.69    8.40
  -1   0  18  124.59    8.60
  -1   0  18  125.69    7.60
   1   0  18  122.69    7.80
   1   0  18  118.09    8.10
  -1   0  18  120.09    8.30
   2   0  18    0.50    1.50
   2   0 -18   -1.00    1.80
  -2   0  18    1.00    2.10
   2   0  18   -1.40    1.40
  -2   0  18   -0.40    1.60
   2   0  18    1.70    1.80
  -2   0  18   -1.30    1.30
  -2   0  18    0.50    1.70
  -2   0 -18   -1.50    1.50
   2   0  18    1.30    1.90
   2   0  18    2.60    3.20
  -2   0  18    0.90    1.20
  -3   0  18   -2.30    2.50
   3   0  18    0.20    1.70
  -3   0  18    1.40    1.80
  -3   0  18    1.20    1.90
  -3   0  18   -1.10    1.60
  -3   0 -18   -0.80    2.00
   3   0 -18   -1.50    2.20
  -3   0  18    0.50    1.80
  -3   0  18    0.90    2.20
   3   0  18   -0.50    1.70
   3   0  18    1.90    1.80
   4   0  18   -0.40    1.40
  -4   0  18    1.50    2.30
   4   0  18    1.40    1.30
  -4   0  18    0.60    1.80
  -4   0 -18    0.10    1.60
  -4   0  18   -0.40    1.10
  -4   0  18   -0.50    1.70
   4   0  18    0.10    1.70
  -4   0  18    0.80    1.70
   4   0  18   -0.40    1.80
   4   0 -18    1.60    2.10
  -5   0  18    6.90    2.60
   5   0 -18    6.20    2.40
  -5   0  18    5.20    2.00
  -5   0 -18   13.20    4.10
   5   0  18    3.50    1.70
   5   0  18    7.10    2.10
  -5   0  18    5.20    1.60
  -5   0 -18   11.80    2.20
  -5   0  18    7.90    2.20
  -6   0 -18   15.60    2.10
  -6   0 -18   16.70    3.00
   6   0  18   11.40    2.40
  -6   0  18   10.70    2.00
   6   0 -18   11.40    2.30
   7   0  18   -0.70    0.90
  -7   0  18   -0.50    0.80
   7   0  18   -0.50    0.60
   7   0 -18    0.80    1.10
   0  -1  18    2.40    1.90
   0  -1  18    2.60    2.00
   0   1  18    1.10    2.00
   0  -1 -18    2.10    1.90
   0   1  18    4.70    1.70
   0   1  18    0.20    1.70
   0   1  18    2.50    1.80
   0  -1  18    1.60    2.30
   0  -1  18    0.50    1.20
   0   1  18    3.20    1.60
   0  -1  18   -0.20    1.50
   0   1 -18    5.30    1.80
  -1   1  18   19.50    3.00
  -1   1  18   19.40    3.70
   1  -1  18   15.00    2.90
  -1   1  18   23.00    3.00
  -1  -1 -18   23.20    3.40
   1  -1  18   20.50    2.70
  -1   1  18   17.10    3.10
  -1   1  18   25.60    3.40
   1  -1  18   16.30    2.80
   1  -1  18   17.80    2.80
   1   1 -18   20.90    3.20
   1  -1  18   22.00    4.40
   1   1  18   27.40    3.70
  -1   1 -18   19.60    2.80
   1   1  18   21.50    3.10
  -1  -1  18   12.00    2.70
  -1  -1  18   19.60    3.20
   1   1  18   25.90    3.70
  -1  -1  18   17.60    2.30
   1  -1 -18   16.00    2.90
   1   1  18   23.20    2.80
   1   1  18   26.80    3.90
  -1  -1  18   25.20    3.80
   2  -1  18  117.39    8.10
  -2   1  18  126.09    8.80
  -2   1  18  127.89    8.40
   2  -1  18  123.89    8.40
   2   1 -18  119.99    8.50
   2  -1  18  140.19    9.20
   2  -1  18  127.99    8.90
  -2  -1 -18  128.79    8.30
  -2   1  18  127.09    8.10
  -2   1  18  124.69    8.50
   2  -1  18  132.89    8.10
  -2   1  18  136.59    9.00
  -2   1 -18  130.89    8.20
  -2  -1  18  126.99    9.10
   2  -1 -18  121.19    8.60
  -2  -1  18  128.49    9.00
  -2  -1  18  127.19    8.70
  -2  -1  18  130.39    8.60
   2   1  18  115.99    7.70
  -2  -1  18  127.29    8.40
   2   1  18  137.09    8.70
   2   1  18  123.89    8.60
   2   1  18  122.79    8.40
  -2  -1  18  123.49    7.30
  -3   1  18   53.09    6.30
  -3  -1 -18   55.19    6.50
  -3   1  18   47.90    6.10
   3  -1  18   49.99    5.90
   3  -1  18   49.20    5.40
  -3   1  18   58.59    5.20
   3   1 -18   61.09    6.10
  -3   1  18   60.39    5.20
   3  -1  18   53.99    5.20
  -3  -1  18   54.39    6.60
  -3   1 -18   45.30    6.30
  -3  -1  18   45.40    5.90
  -3  -1  18   50.59    5.00
  -3  -1  18   51.49    3.60
  -3  -1  18   38.80    5.70
  -4   1  18   19.60    2.80
  -4  -1 -18   17.00    2.70
   4  -1  18   12.10    2.10
  -4   1  18   12.70    2.80
  -4   1  18   16.00    2.80
  -4   1  18   14.30    2.40
   4  -1  18   15.10    3.40
   4  -1  18   13.60    3.10
   4  -1  18   14.30    2.60
   4   1 -18    8.60    2.70
  -4  -1  18   18.50    3.40
  -4  -1  18   16.20    3.00
   4  -1 -18   13.90    3.10
  -4  -1  18   11.10    2.60
   4   1  18   10.70    2.50
  -4   1 -18   22.00    3.00
  -4  -1  18   13.30    3.00
   5   1 -18    7.20    2.30
  -5  -1 -18    7.70    2.30
   5  -1  18    6.60    2.00
   5  -1  18    5.50    1.30
  -5   1  18    4.40    1.70
  -5   1  18    5.80    1.50
   5  -1  18    6.00    2.00
  -5   1  18    7.20    2.30
  -5  -1 -18    6.20    1.70
  -5   1 -18   12.80    3.30
  -5  -1  18    9.50    2.20
  -5   1 -18    5.80    1.90
  -5  -1  18    4.20    1.80
   5  -1 -18    6.20    2.40
   5   1  18    5.20    2.00
   5   1  18    6.70    2.40
  -5  -1  18   10.90    2.50
  -6   1  18   10.60    2.00
   6   1 -18    9.10    2.10
  -6   1  18    9.70    1.20
   6  -1  18    7.90    1.80
  -6  -1 -18   10.10    1.50
  -6  -1 -18    6.40    2.00
  -6   1 -18   12.70    1.90
   6  -1 -18   12.20    2.30
  -6  -1  18   15.00    2.20
   6   1  18    6.90    1.70
  -6  -1  18   10.60    2.00
  -6   1 -18   17.00    3.10
  -6  -1  18   14.90    2.20
   7  -1  18    7.40    1.20
  -7   1  18    8.90    1.20
   7   1 -18    6.50    1.40
   7  -1  18    6.90    1.50
   7  -1 -18    7.10    1.30
  -7  -1  18   12.10    1.60
   7   1  18    4.60    1.10
   0   2  18   39.00    3.80
   0  -2  18   19.90    3.40
   0   2  18   27.80    3.70
   0  -2  18   29.60    4.10
   0   2  18   26.60    3.70
   0  -2  18   36.70    3.90
   0   2  18   32.80    3.70
   0   2  18   22.90    4.10
   0  -2  18   22.90    2.40
   0  -2 -18   31.10    4.00
   0  -2  18   36.60    4.60
   0   2 -18   29.20    3.60
   1  -2  18   29.90    2.80
  -1   2  18   27.30    3.40
  -1   2  18   33.10    4.00
   1  -2  18   25.00    3.70
   1   2 -18   30.60    4.00
   1  -2  18   21.50    5.00
   1  -2  18   29.70    4.00
   1  -2  18   35.30    4.40
  -1   2  18   36.70    4.20
  -1   2  18   37.70    3.80
   1  -2  18   33.40    4.10
   1  -2  18   34.70    4.10
  -1  -2 -18   30.10    4.00
  -1   2  18   41.20    4.90
  -1  -2  18   33.60    4.10
   1   2  18   39.30    4.20
  -1  -2  18   34.30    4.60
   1   2  18   33.60    3.90
   1  -2 -18   31.50    4.10
   1   2  18   39.60    4.10
  -1  -2  18   39.90    5.00
  -1  -2  18   32.20    4.00
   1   2  18   32.00    4.10
  -1  -2  18   35.30    4.60
  -1   2 -18   32.50    3.80
   2  -2  18    2.20    2.30
  -2   2  18    5.90    1.90
   2  -2  18    3.50    1.60
  -2  -2 -18    5.90    2.10
   2  -2  18    3.00    2.60
   2  -2  18    8.10    2.30
  -2   2  18    5.40    1.70
   2   2 -18    2.10    2.10
  -2   2  18    6.30    2.00
  -2   2  18    5.80    2.70
   2  -2  18    1.30    1.80
  -2   2  18    8.80    2.60
   2  -2 -18    5.20    2.50
  -2   2 -18   10.40    2.40
   2   2  18    3.80    1.80
  -2  -2  18    5.70    2.40
   2   2  18    7.20    2.30
  -2  -2  18    3.70    2.50
  -2  -2  18    4.40    2.20
   2   2  18    3.30    2.10
  -2  -2  18    2.00    1.80
  -2  -2  18    5.30    2.70
   3   2 -18   37.90    5.50
   3  -2  18   44.60    5.00
  -3   2  18   39.00    4.50
  -3   2  18   36.60    3.80
   3  -2  18   42.90    4.00
  -3  -2 -18   44.50    4.20
  -3   2  18   40.40    4.20
  -3   2  18   42.50    4.50
   3  -2  18   41.70    4.80
   3  -2  18   41.30    5.10
   3   2  18   37.80    4.80
  -3  -2  18   41.50    5.10
   3  -2 -18   51.19    5.10
  -3  -2  18   39.60    4.60
   3   2  18   43.90    4.30
  -3  -2  18   47.50    4.80
  -3   2 -18   36.10    4.20
  -3  -2  18   46.90    5.00
   3   2  18   44.00    4.50
   4  -2  18    2.50    1.90
   4   2 -18    2.90    2.10
   4  -2  18    1.30    1.80
  -4   2  18    0.50    1.30
   4  -2  18    2.40    1.80
  -4   2  18   -0.90    1.70
  -4   2  18    1.70    1.50
  -4  -2 -18    2.40    1.60
   4  -2  18    2.10    1.60
  -4  -2  18    2.00    2.10
   4  -2 -18    0.90    2.10
  -4   2 -18    1.40    1.70
  -4  -2  18   -0.10    2.00
  -4  -2  18    0.20    1.70
   4   2  18    1.60    1.80
  -4  -2  18   -1.70    1.60
  -5   2  18    4.70    1.60
  -5   2  18    0.70    1.20
   5  -2  18    5.10    1.60
   5  -2  18    4.20    2.20
  -5  -2 -18    3.50    1.40
   5  -2  18    3.90    1.70
  -5  -2 -18    2.40    1.90
  -5  -2  18    1.60    1.90
   5   2  18    6.20    2.20
   5   2  18    1.60    1.50
  -5   2 -18    5.10    2.80
  -5   2 -18    5.50    1.80
  -5  -2  18    4.50    2.10
  -5  -2  18    5.10    2.10
   5  -2 -18    2.70    2.00
   6  -2  18   10.90    2.40
   6  -2  18    5.90    1.30
  -6   2  18    6.10    1.30
   6   2 -18   10.50    2.00
  -6   2  18    8.20    1.50
  -6  -2 -18   10.30    3.50
  -6  -2 -18    4.00    1.80
   6  -2 -18    6.50    1.70
   6   2  18    5.00    1.80
  -6  -2  18    6.60    1.70
  -6   2 -18   13.90    2.60
  -6  -2  18    8.60    1.70
  -6  -2  18    6.40    1.70
  -6   2 -18   10.10    1.70
   0  -3  18    1.30    2.40
   0   3  18    3.00    2.00
   0   3  18    4.80    1.70
   0   3  18    4.00    2.00
   0  -3 -18    5.50    2.20
   0   3  18    2.90    2.30
   0  -3  18    3.80    2.00
   0  -3  18    7.50    2.40
   0  -3  18    3.40    2.30
   0  -3  18    2.90    2.50
   0  -3  18    4.30    2.20
   1  -3  18    8.40    3.00
   1  -3  18    6.10    2.60
   1  -3  18    7.10    2.50
   1  -3  18    4.30    2.60
   1  -3  18    7.30    2.20
  -1   3  18    4.70    1.90
   1  -3  18    8.50    3.60
  -1   3  18    3.30    1.70
  -1   3  18    8.70    2.30
  -1  -3 -18    3.70    1.90
  -1  -3  18    4.50    2.00
  -1  -3  18    7.50    3.00
   1   3  18    8.60    2.60
  -1  -3  18    6.40    2.90
   1  -3 -18    8.70    2.40
  -1   3 -18    7.70    2.40
   1   3  18    5.30    2.20
  -1  -3  18    6.60    2.40
   1   3  18    4.20    1.70
  -1  -3  18    6.40    2.30
   2  -3  18   22.90    5.20
  -2  -3 -18   16.80    3.80
  -2   3  18   18.40    3.20
   2  -3  18   13.40    3.50
  -2   3  18   20.30    4.30
  -2   3  18   12.60    3.20
   2  -3  18   22.60    5.10
   2  -3  18   17.70    4.80
   2  -3  18   15.30    2.70
  -2   3  18   11.80    2.10
  -2  -3  18   23.20    4.30
  -2  -3  18   17.40    3.50
   2  -3 -18   19.90    4.30
  -2  -3  18   18.70    4.50
   2   3  18   21.60    3.50
  -2   3 -18   19.20    3.30
   2   3  18   15.70    3.70
  -2  -3  18   23.30    4.30
  -2  -3  18   12.20    2.60
   3  -3  18    6.60    3.70
  -3   3  18   14.30    2.80
  -3  -3 -18   12.70    3.40
  -3   3  18   15.40    4.50
   3  -3  18   18.90    5.40
  -3   3  18   12.70    2.10
   3  -3  18   10.60    1.60
   3   3 -18   15.70    2.70
   3   3  18   12.90    3.70
  -3   3 -18   13.00    2.50
  -3  -3  18    9.30    3.60
  -3  -3  18   10.00    2.70
  -4   3  18    2.30    1.40
  -4   3  18    3.10    1.60
   4  -3  18    3.00    1.80
  -4  -3 -18    3.50    2.40
   4   3 -18   -0.40    1.90
   4  -3  18    2.60    2.50
  -4  -3 -18    1.60    1.50
   4  -3  18    4.10    2.40
   4  -3  18    2.20    1.20
   4  -3  18    1.40    1.80
  -4  -3  18    3.60    2.10
   4   3  18    1.70    1.70
   4  -3 -18    3.20    2.00
  -4  -3  18    2.60    2.10
  -4   3 -18    0.40    1.60
  -4  -3  18    3.10    1.80
   5  -3  18    0.40    1.90
  -5   3  18    2.30    1.20
   5  -3  18    1.80    1.50
   5  -3  18    2.10    1.00
   5   3 -18    0.70    1.60
  -5   3  18    2.00    1.40
   5  -3  18    3.60    2.10
  -5  -3 -18    5.30    3.40
  -5   3 -18    3.50    2.50
  -5  -3  18    3.40    2.00
   5  -3 -18    1.80    1.60
  -5  -3  18    1.30    1.80
   5   3  18    1.90    1.30
  -5  -3  18   -0.40    1.30
   5   3  18    2.50    1.60
  -5   3 -18    3.60    1.70
   6  -3  18    1.00    1.50
  -6  -3 -18    0.00    1.30
  -6   3  18   -0.50    1.10
   6   3 -18    1.80    1.60
  -6   3  18    0.70    0.90
   6  -3 -18   -0.30    1.00
  -6  -3  18    1.30    1.40
  -6  -3  18   -0.80    1.10
   6   3  18    1.40    1.20
  -6   3 -18   -1.00    1.50
  -6   3 -18    0.70    1.10
  -6  -3  18   -1.30    1.10
   0   4  18    7.60    2.50
   0  -4  18    1.90    2.60
   0  -4  18    5.30    2.80
   0  -4  18   12.10    4.20
   0  -4 -18    6.00    2.50
   0  -4  18    5.20    2.40
  -1  -4 -18    0.60    1.50
  -1   4  18    2.30    1.70
   1  -4  18    2.20    2.50
   1  -4  18    2.40    2.20
   1  -4  18    1.40    2.30
  -1   4  18    2.80    2.10
   1  -4  18    2.50    2.10
   1  -4  18    1.90    1.90
  -1  -4  18    0.70    1.60
  -1  -4  18    0.60    2.40
  -1  -4  18    2.50    2.50
  -1  -4  18    1.70    1.80
   1  -4 -18    3.70    1.80
   1   4  18    3.30    2.00
   1   4  18    1.30    3.30
   2  -4  18    5.50    1.80
   2  -4  18    1.60    2.40
   2  -4  18    6.40    3.50
  -2   4  18    4.70    1.80
   2  -4  18    4.60    2.90
  -2   4  18    4.80    2.10
   2  -4  18    8.80    3.50
   2   4  18    6.50    2.30
   2  -4 -18    7.90    2.60
  -2  -4  18    2.50    2.30
  -2  -4  18    7.20    2.70
   2   4  18    8.40    2.80
  -2   4 -18    4.60    2.30
  -2  -4  18    4.70    2.60
  -2  -4  18    4.00    2.70
  -2  -4  18   11.20    2.70
   3  -4  18   41.20    4.70
   3  -4  18   38.40    4.90
  -3  -4 -18   41.70    3.50
   3  -4  18   33.90    4.40
  -3   4  18   42.20    4.40
   3  -4  18   45.30    5.40
   3  -4 -18   40.80    4.00
  -3  -4  18   39.30    4.80
  -3  -4  18   50.89    4.70
   3   4  18   43.10    4.30
  -3   4 -18   36.80    4.30
  -3  -4  18   43.80    5.00
  -4   4  18   28.30    3.30
   4  -4  18   17.60    3.90
   4   4 -18   16.50    2.60
   4  -4  18   25.90    3.90
   4  -4  18   17.20    3.60
   4  -4  18   15.90    2.90
  -4  -4  18   20.50    3.10
  -4  -4  18   24.20    3.30
  -4   4 -18   22.20    3.10
   4   4  18   12.90    2.60
  -4  -4  18   23.80    3.50
   5  -4  18    5.80    1.80
   5  -4  18   10.00    2.80
   5  -4  18    4.10    1.90
  -5   4  18   10.10    2.20
  -5  -4  18    8.90    2.00
  -5   4 -18    8.70    2.30
   5  -4 -18    7.90    1.50
  -5   4 -18    9.10    1.90
   5   4  18    8.10    1.80
  -5  -4  18    6.60    2.00
  -5  -4  18   11.70    2.60
   5   4  18    4.80    1.30
   6  -4  18    1.40    1.20
  -6   4  18    2.00    0.90
   6   4 -18    3.20    1.40
  -6  -4 -18    2.10    1.20
  -6  -4  18    2.80    1.90
  -6   4 -18    1.40    0.80
  -6   4 -18    3.10    2.00
  -6  -4  18    0.40    1.20
   6   4  18    0.20    0.90
  -6  -4  18    0.90    1.20
   0  -5 -18    5.70    1.70
   0  -5  18    4.50    2.70
   0  -5  18    1.40    2.30
   0   5  18    8.00    2.50
   0  -5  18    4.60    2.30
   0  -5  18    4.50    2.30
   0  -5  18    7.90    3.00
   1  -5  18   27.50    3.80
   1  -5  18   25.60    3.50
   1  -5  18   40.10    4.50
  -1   5  18   35.80    4.00
   1  -5  18   39.00    5.10
   1  -5  18   31.30    4.40
  -1  -5 -18   27.70    3.00
  -1   5  18   30.90    4.30
  -1  -5  18   27.20    4.00
  -1  -5  18   34.60    4.60
  -1  -5  18   42.00    5.90
  -1  -5  18   37.00    4.50
   1  -5 -18   35.50    3.40
  -1  -5  18   36.30    4.60
   1   5  18   34.80    4.10
   2  -5  18   18.50    3.60
  -2   5  18   13.80    2.80
   2  -5  18   23.50    3.90
   2  -5  18   19.20    4.10
  -2  -5 -18   17.30    2.40
   2  -5  18   20.30    3.60
   2   5  18   17.80    2.90
  -2   5 -18   21.00    2.80
   2  -5 -18   17.80    2.40
  -2  -5  18   10.60    2.50
  -2  -5  18   23.70    3.80
  -2  -5  18   18.20    3.30
  -2  -5  18   20.70    3.20
   3  -5  18   18.80    4.00
   3  -5  18   16.10    3.70
  -3   5  18   27.00    3.40
   3  -5  18   20.70    3.30
   3  -5  18   18.30    3.30
  -3  -5  18   23.20    3.50
   3   5  18   21.80    3.20
   3  -5 -18   26.90    2.70
  -3  -5  18   27.50    3.40
  -3   5 -18   31.50    4.70
  -3  -5  18   29.70    4.10
  -4   5  18    6.70    1.90
   4  -5  18    8.20    2.60
   4  -5  18   14.10    4.30
   4  -5  18    6.20    2.30
   4  -5  18    9.00    2.00
  -4   5 -18   10.90    2.00
  -4   5 -18   11.10    2.80
  -4  -5  18    9.30    2.40
   4  -5 -18    9.20    1.40
   4   5  18    7.90    2.00
  -4  -5  18   11.00    2.50
  -4  -5  18    8.50    2.40
  -5   5  18    7.00    1.40
   5  -5  18    7.60    1.90
   5  -5  18   10.30    1.90
   5  -5  18    9.70    2.20
  -5  -5  18    6.50    1.90
  -5  -5  18   12.30    2.30
   5   5  18    9.70    1.80
  -5  -5  18   11.40    1.80
  -5   5 -18   11.60    2.20
  -5   5 -18    7.70    1.50
   0  -6  18   -0.50    2.00
   0  -6  18    0.50    2.00
   0  -6  18    1.50    1.80
   0  -6  18    1.40    2.10
   0   6  18    0.60    1.50
   0  -6  18    0.00    2.20
   1  -6  18    9.50    3.10
   1  -6  18   10.00    2.60
  -1   6  18   15.00    2.70
   1  -6  18    8.00    2.80
   1  -6  18   11.50    3.00
  -1  -6  18   14.10    2.70
  -1  -6  18    9.60    2.80
  -1  -6  18   10.70    2.40
   1   6  18   10.70    2.40
  -1  -6  18   12.30    2.90
  -2   6  18    4.70    2.00
   2  -6  18    1.40    2.10
   2  -6  18    3.70    3.30
   2  -6  18    1.10    2.60
   2  -6  18    4.10    2.40
  -2  -6  18    2.30    1.80
  -2  -6  18    2.10    2.00
  -2  -6  18    9.30    2.60
  -2  -6  18    1.00    2.00
   2   6  18    1.60    1.60
   3  -6  18    8.00    2.10
   3  -6  18    5.60    3.10
   3  -6  18    7.80    4.40
   3  -6  18   11.70    2.80
  -3   6  18    6.80    1.90
  -3  -6  18    5.40    2.40
  -3  -6  18   10.60    2.70
  -3   6 -18    7.40    1.70
  -3  -6  18    8.30    2.30
   3   6  18   11.00    3.00
  -3   6 -18    9.80    3.00
   4  -6  18    3.30    1.60
  -4   6  18    1.10    1.20
   4  -6  18    2.10    1.80
   4  -6  18    0.00    3.30
  -4  -6  18    5.40    2.00
   4   6  18    1.10    1.20
  -4  -6  18    1.30    1.30
  -4   6 -18    0.30    1.80
  -4  -6  18    0.40    1.50
  -4   6 -18    2.10    1.00
  -5   6  18   12.70    1.90
   5  -6  18   10.10    1.80
   5  -6  18    9.00    2.20
   5   6  18    5.90    1.30
  -5  -6  18   10.90    1.40
  -5  -6  18    9.80    1.90
   0  -7  18    1.40    1.50
   0  -7  18    5.30    2.90
   0   7  18    4.30    2.40
   0  -7  18    3.80    2.30
   0  -7  18    5.10    3.70
   0  -7  18    5.30    2.40
   1  -7  18    5.90    2.60
   1  -7  18    4.40    2.10
   1  -7  18    2.50    2.70
   1  -7  18    4.10    2.90
  -1   7  18    1.80    1.60
  -1  -7  18    3.20    2.40
  -1  -7  18    5.10    2.50
  -1  -7  18    2.30    2.30
   1   7  18    3.30    1.90
  -1  -7  18    2.60    1.70
   2  -7  18    4.70    2.30
   2  -7  18    5.40    3.30
  -2   7  18    5.90    1.80
   2  -7  18    8.50    5.00
   2   7  18    3.50    1.40
  -2  -7  18    4.00    1.90
  -2  -7  18    7.70    2.30
  -2  -7  18    6.40    2.00
   3  -7  18   37.00    5.00
   3  -7  18   31.70    3.80
   3  -7  18   27.90    3.30
  -3  -7  18   25.10    3.20
  -3  -7  18   34.40    3.00
  -3  -7  18   29.80    3.70
  -4   7  18    1.10    1.10
   4  -7  18    1.70    1.40
   4  -7  18    2.30    1.90
   4  -7  18    0.50    1.40
   4   7  18    1.40    1.00
  -4   7 -18   -0.40    0.60
  -4  -7  18   -0.70    1.20
  -4  -7  18    2.70    1.60
  -4  -7  18   -1.10    1.70
   0  -8  18    1.80    2.00
   0  -8  18   -0.30    2.10
   0  -8  18    0.20    2.90
   0  -8  18   -1.90    2.00
   0   8  18    0.80    1.20
   1  -8  18    0.80    3.50
   1  -8  18    1.00    1.60
   1  -8  18    0.40    2.90
   1  -8  18   -0.10    1.90
  -1   8  18    1.50    0.90
  -1  -8  18    0.60    2.10
  -1  -8  18   -2.60    2.80
  -1  -8  18    0.90    1.90
   1   8  18    1.70    1.20
   2  -8  18    7.20    3.80
  -2   8  18    1.10    1.00
   2  -8  18    4.20    1.80
   2  -8  18    6.40    2.20
  -2  -8  18    5.80    1.70
   2   8  18    4.10    1.20
  -2  -8  18    3.40    1.30
  -2  -8  18    6.00    2.10
   3  -8  18    3.40    2.30
   3  -8  18    0.90    1.30
  -3   8  18    1.90    1.10
   3  -8  18   -0.30    1.70
  -3  -8  18    0.70    1.70
  -3  -8  18    1.50    1.00
   0  -9  18    1.40    3.80
   1  -9  18    0.50    3.00
   0   0  19    0.10    1.60
   0   0  19    2.00    2.20
   0   0 -19    1.30    1.80
   0   0  19    0.00    1.40
   0   0  19    0.40    1.40
   0   0  19   -0.20    1.70
  -1   0  19   18.80    3.00
   1   0  19   21.40    2.80
   1   0  19   18.00    3.10
  -1   0  19   13.70    2.80
  -1   0 -19   19.70    3.00
   1   0  19   17.60    3.20
   1   0  19   17.90    3.10
  -1   0  19   23.10    3.80
  -1   0  19   23.50    2.80
   1   0 -19   20.20    3.10
  -1   0  19   13.50    2.60
   1   0  19   18.50    2.90
  -2   0  19   14.70    3.20
  -2   0  19   12.30    3.40
   2   0  19   15.80    3.40
  -2   0  19   14.70    3.40
   2   0 -19   11.70    3.80
  -2   0  19   15.90    3.50
   2   0  19   15.80    3.30
   2   0  19   11.40    3.30
  -2   0 -19   17.40    3.80
   2   0  19   12.60    2.90
   2   0  19   14.40    3.20
   3   0  19   40.50    3.60
  -3   0  19   43.90    3.50
   3   0 -19   43.00    6.20
  -3   0  19   41.40    4.60
  -3   0 -19   35.40    5.50
  -3   0  19   44.70    4.70
  -4   0  19    4.20    1.90
   4   0  19    5.20    1.80
  -4   0  19    6.40    2.20
   4   0  19    5.10    2.00
   4   0  19    8.30    2.50
  -4   0 -19    5.30    1.90
  -4   0  19    3.00    1.70
  -4   0  19    2.10    1.20
   4   0 -19    5.00    2.30
   5   0  19    1.10    1.50
  -5   0  19    1.60    1.60
  -5   0 -19    1.20    1.40
  -5   0 -19    1.10    2.20
   5   0 -19   -1.10    1.70
  -5   0  19    1.50    1.70
   5   0  19    0.80    1.30
  -5   0  19    1.40    1.50
  -6   0 -19   76.09    5.30
  -6   0  19   69.99    4.70
  -6   0 -19   66.19    4.20
   0  -1  19   10.60    2.40
   0  -1  19    6.10    2.50
   0   1  19   11.40    2.20
   0   1  19   13.10    3.10
   0  -1  19   10.70    1.90
   0  -1 -19   13.40    2.70
   0  -1  19   15.80    2.90
   0  -1  19   14.60    3.20
   0   1  19    9.30    2.50
   0   1  19   13.00    2.50
   0   1 -19   10.40    2.40
   0   1  19    9.10    2.40
   1  -1  19    7.50    2.50
  -1   1  19    3.80    1.90
   1  -1  19    2.50    1.40
   1  -1  19    6.30    2.60
   1  -1  19    5.20    2.30
  -1   1  19    8.30    2.70
  -1  -1 -19    6.20    2.20
   1  -1  19    7.30    2.80
  -1   1  19    3.90    2.20
  -1   1  19    7.00    1.80
   1   1 -19    4.20    2.10
  -1   1  19    5.00    1.80
   1  -1  19    6.60    2.10
   1   1  19    9.40    2.20
   1   1  19    8.20    2.40
   1   1  19    1.40    1.70
  -1  -1  19   10.20    2.80
  -1   1 -19    3.60    2.00
   1  -1 -19    3.50    2.10
  -1  -1  19    7.40    2.60
   1   1  19    7.30    2.50
  -1  -1  19    5.60    1.40
   1   1  19    4.60    1.60
  -1  -1  19    6.80    2.20
  -1  -1  19    8.40    2.90
   2  -1  19   42.10    4.30
   2  -1  19   38.60    4.70
  -2   1  19   44.00    4.50
  -2   1  19   37.60    4.80
   2   1 -19   33.20    4.60
  -2   1  19   31.90    5.60
  -2   1  19   37.20    4.30
  -2   1  19   35.30    4.30
  -2  -1 -19   30.30    4.90
   2  -1  19   38.30    4.70
  -2  -1  19   45.00    5.50
   2   1  19   40.90    5.10
   2  -1 -19   41.20    6.40
  -2  -1  19   43.30    4.50
   2   1  19   48.20    6.90
  -2  -1  19   25.50    4.60
  -2   1 -19   42.00    5.70
  -2  -1  19   37.90    2.90
   2   1  19   45.80    4.90
  -2  -1  19   39.40    4.40
  -3   1  19   -0.10    1.30
  -3   1  19    0.20    1.80
   3  -1  19    0.60    2.20
   3  -1  19   -1.50    3.70
  -3   1  19    0.40    1.80
  -3   1  19    2.50    2.40
  -3   1  19    2.20    1.70
   3  -1  19   -0.20    1.50
   3   1 -19    1.60    2.00
   3  -1  19   -1.00    1.40
  -3  -1  19    1.30    3.60
   3   1  19    0.50    1.60
  -3  -1  19    0.70    1.80
   3   1  19    0.20    2.80
   3  -1 -19    3.80    2.90
  -3   1 -19    0.50    1.70
  -3  -1  19    0.90    1.80
  -3  -1  19    1.00    2.50
  -4   1  19    9.80    1.90
   4   1 -19   11.30    2.60
  -4   1  19   11.00    2.70
  -4   1  19   12.80    2.40
  -4   1  19   10.50    2.50
   4  -1  19    9.20    2.40
  -4  -1 -19   11.20    2.20
   4  -1  19   15.20    2.50
   4  -1  19    9.00    1.80
   4  -1  19    9.30    2.10
   4   1  19   15.70    3.00
   4   1  19    7.30    2.20
  -4   1 -19   12.70    2.40
   4  -1 -19   13.50    2.70
  -4  -1  19   10.50    2.60
  -4  -1  19   13.00    2.60
  -4  -1  19   11.90    2.60
   5  -1  19   -0.20    1.30
   5  -1  19    0.70    1.60
  -5   1  19    2.10    1.20
  -5   1  19    4.70    1.20
   5   1 -19    2.40    2.40
  -5   1  19    4.80    2.10
  -5  -1 -19    3.00    1.90
   5   1  19    2.20    1.90
   5  -1 -19    1.80    1.90
  -5  -1  19    3.50    1.70
  -5  -1  19    1.40    1.60
   5   1  19    1.40    1.40
  -5   1 -19    2.70    1.50
  -5   1 -19    4.70    2.40
  -5  -1  19    3.10    1.80
  -6   1  19    0.50    1.10
  -6  -1 -19    0.70    1.70
   6  -1  19    0.10    0.90
   6   1 -19   -0.20    1.40
   6  -1  19    0.60    1.40
  -6  -1  19    2.80    2.60
   6   1  19   -1.30    1.10
  -6   1 -19   -0.30    1.70
   6  -1 -19    1.40    1.40
  -6  -1  19    1.30    1.90
  -6  -1  19    1.10    1.30
   0  -2 -19    4.20    2.10
   0  -2  19    1.70    2.10
   0  -2  19    4.30    3.60
   0  -2  19    1.90    1.90
   0   2  19    6.60    2.20
   0  -2  19    5.30    2.60
   0   2 -19    3.40    1.90
   0   2  19    1.70    1.80
   0   2  19    3.00    3.20
   0   2  19    3.20    2.10
   0  -2  19    4.90    2.20
   1  -2  19   34.60    4.60
  -1   2  19   39.20    4.00
   1  -2  19   37.90    4.90
   1  -2  19   41.80    5.10
  -1   2  19   34.40    4.40
  -1  -2 -19   35.40    4.20
  -1   2  19   39.30    4.30
   1  -2  19   41.10    4.60
   1  -2  19   35.60    4.30
   1  -2 -19   38.10    4.30
  -1  -2  19   41.30    5.10
   1   2  19   43.70    4.50
   1   2  19   39.80    4.10
  -1   2 -19   40.30    5.70
  -1  -2  19   30.50    4.50
   1   2  19   42.30    4.90
   1   2  19   44.30    4.70
  -1  -2  19   40.50    4.30
  -1  -2  19   39.10    4.90
  -1  -2  19   31.10    4.30
  -2   2  19   30.20    3.60
   2  -2  19   42.30    5.00
   2  -2  19   36.00    4.60
  -2  -2 -19   37.10    4.00
   2  -2  19   39.80    4.40
  -2   2  19   30.70    4.20
   2  -2  19   30.60    4.40
  -2   2  19   36.90    4.50
  -2   2  19   33.00    4.20
  -2   2  19   27.70    3.70
   2  -2  19   38.70    4.80
   2  -2  19   27.70    3.60
  -2  -2  19   37.30    4.30
  -2  -2  19   40.20    5.10
   2  -2 -19   38.40    4.30
   2   2  19   37.70    3.80
   2   2  19   31.80    4.00
  -2   2 -19   25.70    3.70
  -2  -2  19   38.40    4.80
  -2  -2  19   35.00    5.50
   2   2  19   29.80    4.30
   3   2 -19   -2.50    1.70
   3  -2  19   -0.50    2.10
  -3   2  19    0.80    1.20
  -3  -2 -19    1.30    1.60
  -3   2  19    2.50    1.50
   3  -2  19    1.20    2.10
  -3   2  19    1.00    1.80
   3  -2  19    1.50    2.30
   3  -2  19   -1.00    1.10
  -3   2  19   -0.40    1.80
  -3   2 -19    2.00    1.70
  -3  -2  19    2.50    1.80
  -3  -2  19    1.40    2.50
   3  -2 -19    0.70    2.10
   3   2  19    1.70    1.80
  -3  -2  19    2.60    2.10
  -3  -2  19    1.30    2.00
   4  -2  19   12.00    2.30
  -4   2  19   12.00    2.40
   4  -2  19    6.50    2.40
   4  -2  19   10.70    2.00
   4  -2  19   13.40    2.50
  -4  -2 -19   12.10    2.10
  -4   2  19    9.90    2.00
   4   2 -19    7.80    2.30
  -4   2  19    9.40    1.90
  -4  -2  19    7.10    2.60
  -4   2 -19   10.50    2.20
   4   2  19   14.70    2.70
   4  -2 -19   10.70    2.50
  -4  -2  19   12.00    2.50
  -4  -2  19   11.40    2.50
  -5  -2 -19    2.90    1.80
   5  -2  19    2.30    2.10
   5  -2  19    3.70    1.20
  -5   2  19    3.00    1.50
   5  -2  19    1.30    1.40
   5   2 -19    4.90    1.80
  -5   2  19    5.60    1.50
  -5  -2 -19    4.40    1.90
  -5  -2 -19    4.30    1.20
   5  -2  19    2.10    0.90
   5   2  19    3.70    1.40
  -5   2 -19    7.00    2.20
  -5  -2  19    6.30    2.00
  -5   2 -19    8.70    2.60
  -5  -2  19    4.90    2.00
   5   2  19    2.60    2.00
   6  -2  19    3.60    1.60
  -6   2  19    5.20    1.10
  -6   2  19    3.10    0.80
   6   2 -19    4.10    1.60
  -6  -2  19    5.60    1.40
  -6  -2  19    6.70    1.50
  -6  -2  19    3.50    1.30
  -6   2 -19    9.50    2.00
   6  -2 -19    4.80    1.30
   6   2  19    2.60    1.50
  -6   2 -19    6.90    1.30
   0   3 -19   31.00    5.20
   0  -3  19   38.30    4.90
   0   3  19   33.80    3.80
   0  -3 -19   27.90    3.80
   0  -3  19   33.30    4.70
   0  -3  19   38.60    5.00
   0  -3  19   22.60    3.60
   0  -3  19   26.50    3.60
   0   3  19   31.50    4.10
  -1   3  19   37.90    4.40
   1  -3  19   38.50    6.90
   1  -3  19   39.30    4.40
   1  -3  19   41.50    5.50
   1  -3  19   38.80    4.80
  -1   3  19   38.90    4.50
  -1   3  19   39.70    4.10
   1  -3  19   42.50    4.50
  -1  -3 -19   39.70    4.00
   1  -3 -19   43.70    4.30
   1   3  19   41.80    4.30
  -1  -3  19   27.90    4.10
  -1  -3  19   38.40    4.50
  -1  -3  19   37.30    4.40
   1   3  19   37.50    4.60
  -1  -3  19   41.40    4.90
   1   3  19   39.60    4.60
  -1  -3  19   32.20    4.50
  -2   3  19   67.79    6.60
   2  -3  19   77.79    7.40
   2  -3  19   58.39    4.90
  -2   3  19   65.29    5.50
   2   3 -19   61.39    5.30
   2  -3  19   66.09    5.60
  -2  -3  19   59.59    5.50
  -2   3 -19   58.59    5.20
   2   3  19   76.79    7.00
  -2  -3  19   49.80    6.20
   3   3 -19   20.50    3.00
  -3   3  19   21.10    3.10
   3  -3  19   23.50    3.80
   3  -3  19   22.80    3.50
   3  -3  19   27.40    4.10
  -3   3  19   14.60    2.20
  -3   3  19   18.80    3.10
   3  -3  19   24.10    4.10
  -3   3 -19   19.10    2.80
   3   3  19   20.10    3.30
  -3  -3  19   19.50    3.50
  -3  -3  19   22.30    3.40
  -3  -3  19   24.20    3.50
   3  -3 -19   24.60    3.50
  -4  -3 -19   11.30    1.80
  -4  -3 -19    6.10    2.10
   4  -3  19    9.00    3.00
   4   3 -19    7.50    2.00
   4  -3  19    3.80    2.00
   4  -3  19    8.50    2.60
  -4   3  19    6.50    1.50
   4  -3  19    8.00    2.10
  -4   3  19    9.20    2.00
  -4   3 -19    9.30    2.20
  -4  -3  19    8.20    2.10
  -4  -3  19    8.10    2.50
   4  -3 -19    9.70    2.10
  -4  -3  19    7.50    2.70
   4   3  19   13.30    2.70
  -5   3  19    5.30    1.40
  -5   3  19    3.10    1.40
   5   3 -19    2.30    1.40
   5  -3  19    6.40    2.20
   5  -3  19    4.60    1.50
   5  -3  19    3.50    1.30
   5   3  19    6.00    1.90
  -5  -3  19    4.00    1.90
   5  -3 -19    4.50    1.50
  -5   3 -19    5.20    1.60
  -5  -3  19    6.60    1.90
  -5   3 -19    5.90    2.30
   5   3  19    3.00    1.30
  -5  -3  19    5.00    1.90
   6  -3  19   -0.30    1.10
  -6   3  19   -0.10    0.50
   6   3 -19   -0.90    1.00
  -6  -3  19   -0.50    1.00
   6   3  19    0.10    0.90
  -6  -3  19   -0.40    1.10
  -6  -3  19   -1.70    1.20
  -6   3 -19    0.30    0.90
   0   4  19    1.00    2.40
   0  -4  19    3.70    3.70
   0  -4  19    0.80    2.20
   0  -4  19    0.80    2.60
   0  -4  19    1.50    2.40
   0  -4  19   -0.40    2.00
   0  -4 -19    3.00    2.00
   0   4  19    1.30    2.60
   0  -4  19   -5.20    4.20
   1  -4  19    2.60    2.30
   1  -4  19    2.20    2.40
   1  -4  19    2.50    2.10
  -1  -4 -19   -0.10    2.30
   1  -4  19    3.30    2.30
   1  -4  19    1.60    1.80
  -1   4  19   -0.70    1.50
  -1   4  19    2.10    2.00
  -1  -4  19    1.80    2.00
   1   4  19   -0.10    1.70
  -1  -4  19    2.20    2.60
  -1  -4  19    6.40    2.70
   1   4  19    0.80    1.90
  -1   4 -19    0.60    1.60
  -1  -4  19    0.10    1.70
   1  -4 -19    1.90    1.70
  -2  -4 -19    6.20    1.60
   2  -4  19    3.70    2.60
   2  -4  19    9.50    2.00
   2  -4  19    5.70    3.20
  -2   4  19    8.00    3.10
   2  -4  19    6.30    2.60
  -2   4  19    6.30    2.20
   2  -4  19    6.60    2.80
  -2   4 -19    5.30    2.00
  -2  -4  19    5.70    2.70
  -2  -4  19    3.80    2.00
  -2  -4  19    7.40    2.80
  -2  -4  19    7.80    2.80
   2   4  19    2.70    1.90
   2  -4 -19    5.40    1.90
   3  -4  19   11.40    3.00
   3  -4  19   12.10    3.60
   3  -4  19   11.10    3.10
  -3   4  19    9.70    2.20
  -3  -4 -19    7.20    1.60
   3  -4  19    4.50    2.30
   3  -4 -19   10.00    2.10
  -3  -4  19    7.80    2.60
   3   4  19    7.80    2.20
  -3  -4  19    7.00    2.20
  -3   4 -19    8.50    2.00
  -3  -4  19   15.30    2.80
  -4   4  19    0.30    1.20
   4  -4  19    2.90    3.70
   4   4 -19    7.40    2.00
   4  -4  19    2.40    1.90
   4  -4  19    3.80    2.30
   4   4  19    1.40    1.80
  -4   4 -19    0.90    1.80
   4  -4 -19    5.00    2.00
  -4   4 -19    5.30    2.50
  -4  -4  19    2.50    1.70
  -4  -4  19    2.70    2.00
  -4  -4  19    3.10    2.10
   5  -4  19    6.10    1.40
  -5   4  19    3.60    1.20
   5   4 -19    5.00    1.50
   5  -4  19    4.30    1.70
   5  -4  19    5.90    1.60
  -5   4 -19    5.50    1.40
  -5  -4  19    8.50    2.10
  -5  -4  19   11.70    1.90
  -5   4 -19    6.20    2.00
   5  -4 -19    4.90    1.20
   5   4  19    4.60    1.60
  -5  -4  19    6.40    1.90
  -6   4  19    1.90    0.60
   6  -4  19    1.50    1.00
   6   4  19    0.40    0.90
  -6  -4  19    3.70    1.20
  -6  -4  19    1.20    1.00
  -6   4 -19    1.20    0.70
   0  -5 -19    0.70    1.30
   0  -5  19    0.90    2.00
   0  -5  19   -0.60    1.70
   0  -5  19   -0.60    1.70
   0   5  19    0.60    1.60
   0  -5  19   -1.00    2.10
   0  -5  19   -0.20    2.30
   1  -5  19    0.40    2.20
   1  -5  19    0.70    2.10
   1  -5  19   -0.50    1.40
   1  -5  19    1.70    2.10
  -1  -5 -19    2.40    1.30
  -1   5  19    0.50    1.70
   1  -5  19    1.20    2.60
   1  -5 -19    0.70    1.30
   1   5  19    2.40    1.80
  -1  -5  19    2.20    2.10
  -1  -5  19    2.70    2.30
  -1  -5  19    1.10    1.70
  -1  -5  19   -0.70    2.00
  -2   5  19   23.20    3.20
   2  -5  19   25.70    4.10
   2  -5  19   24.10    3.80
   2  -5  19   26.10    4.10
   2  -5  19   17.50    3.00
  -2  -5  19   20.40    3.10
   2  -5 -19   27.90    2.70
  -2  -5  19   27.30    3.50
  -2  -5  19   19.90    3.60
   2   5  19   26.00    3.20
  -2  -5  19   20.00    3.50
  -2   5 -19   22.80    3.30
   3  -5  19   15.50    4.00
   3  -5  19    6.90    2.20
   3  -5  19   13.60    2.80
  -3   5  19   15.20    2.50
   3  -5  19   17.20    3.00
  -3  -5  19   11.00    2.60
   3   5  19   17.20    2.80
  -3  -5  19   17.40    3.20
  -3  -5  19   15.00    2.50
  -3   5 -19   14.00    2.20
   3  -5 -19   11.30    1.90
   4  -5  19    5.30    2.00
   4  -5  19    4.70    1.90
  -4   5  19    4.70    1.50
   4  -5  19    3.00    3.00
   4   5  19    3.90    1.50
  -4   5 -19    5.50    1.40
  -4  -5  19    5.00    2.00
  -4   5 -19   10.00    2.40
  -4  -5  19    6.30    2.20
  -4  -5  19    4.40    1.70
  -5   5  19    0.60    0.80
   5  -5  19    1.20    1.20
   5  -5  19    1.80    1.50
   5  -5  19    2.40    1.20
  -5  -5  19    2.70    1.40
  -5  -5  19    2.90    1.60
  -5  -5  19    2.50    1.50
   5   5  19    0.90    1.00
  -5   5 -19    3.20    1.30
   0  -6  19    4.20    2.60
   0  -6  19    4.50    2.60
   0  -6  19    1.20    2.20
   0   6  19    1.20    1.60
   0  -6  19    2.80    1.90
   0  -6  19    4.60    2.20
   1  -6  19    3.80    3.00
  -1   6  19    1.10    1.60
   1  -6  19    1.80    1.90
   1  -6  19   -1.40    1.90
   1  -6  19    2.80    2.50
  -1  -6  19    0.90    2.50
   1   6  19    0.90    1.50
  -1  -6  19    3.00    2.00
  -1  -6  19    1.90    2.10
  -2   6  19    2.60    1.80
   2  -6  19    5.10    3.40
   2  -6  19    2.70    2.00
   2  -6  19   10.60    3.80
   2  -6  19    3.30    2.00
  -2  -6  19    6.50    2.40
  -2  -6  19    3.80    2.30
  -2  -6  19   -2.70    3.00
  -2  -6  19    1.50    2.10
  -2   6 -19    2.50    1.60
   2   6  19    0.80    1.50
   3  -6  19    7.70    2.30
  -3   6  19    5.60    1.90
   3  -6  19    6.80    1.80
   3  -6  19    4.10    2.10
   3  -6  19    1.90    4.10
  -3   6 -19    4.40    1.70
   3   6  19    2.70    1.40
  -3  -6  19    3.60    2.30
  -3  -6  19    1.60    1.80
  -3  -6  19    4.20    2.00
   4  -6  19    4.80    1.60
   4  -6  19    5.00    2.70
   4  -6  19    4.70    1.70
  -4   6  19    2.50    1.00
  -4  -6  19    6.00    1.50
  -4  -6  19    3.80    1.60
  -4   6 -19    2.70    0.90
   4   6  19    3.60    1.40
  -4  -6  19    8.90    2.10
   0  -7  19    9.10    2.60
   0   7  19   12.80    2.40
   0  -7  19    8.00    2.40
   0  -7  19    7.60    2.70
   0  -7  19   12.90    3.10
   1  -7  19   -0.80    2.40
   1  -7  19   -0.60    1.50
   1  -7  19   -0.10    1.90
   1  -7  19   -1.00    3.00
  -1   7  19    2.50    1.30
  -1  -7  19    2.60    2.00
   1   7  19    1.20    1.30
  -1  -7  19    0.50    2.10
  -1  -7  19    0.10    1.30
  -1  -7  19    2.50    2.10
   2  -7  19    2.40    3.60
   2  -7  19    1.30    1.80
   2  -7  19    1.80    1.50
   2  -7  19   -0.50    1.60
  -2   7  19    1.40    1.30
  -2  -7  19    1.30    1.50
   2   7  19    0.90    1.20
  -2  -7  19   -0.70    1.20
  -2  -7  19    0.10    2.00
  -3   7  19    0.50    1.00
   3  -7  19    0.50    1.30
   3  -7  19    0.00    3.30
   3  -7  19   -0.30    1.40
  -3  -7  19    1.40    1.10
   3   7  19    0.80    1.10
  -3  -7  19    0.40    1.60
  -3  -7  19   -0.10    1.30
   4  -7  19    0.20    1.00
   4  -7  19    1.90    1.50
  -4   7  19    1.10    1.00
  -4  -7  19    0.20    1.00
   0  -8  19   -0.30    2.90
   0  -8  19    2.00    2.30
   0  -8  19    5.00    3.00
   0   8  19    7.10    1.50
   1  -8  19    1.10    1.90
  -1   8  19    0.20    0.90
   1  -8  19    0.10    3.40
   1  -8  19    1.00    2.00
  -1  -8  19    3.90    2.00
   1   8  19    1.30    0.90
  -1  -8  19    1.00    2.30
   2  -8  19    0.40    1.30
  -2   8  19    0.90    0.80
   2  -8  19   -0.60    2.70
   2  -8  19    1.70    1.90
   2   8  19    1.00    0.90
   0   0 -20   88.59    6.60
   0   0  20   95.19    6.20
   0   0  20   90.99    6.50
   0   0  20   90.69    7.30
   0   0  20   95.59    7.30
   0   0  20   94.19    7.00
  -1   0  20   -0.40    1.50
  -1   0  20   -1.20    1.10
  -1   0 -20   -1.80    1.50
  -1   0  20   -0.90    1.50
  -1   0  20    1.30    1.90
  -1   0  20   -0.60    1.70
   1   0  20    0.10    1.50
   1   0  20   -2.70    2.60
   1   0  20   -0.60    1.30
   1   0  20    0.80    1.60
   1   0  20   -2.40    1.90
   1   0 -20   -1.60    1.60
   1   0  20   -1.30    1.60
   2   0 -20    3.70    2.30
   2   0  20    4.10    2.40
   2   0  20    2.00    1.80
  -2   0  20    2.80    2.00
  -2   0  20    2.20    2.20
  -2   0  20    4.80    2.20
  -2   0  20    3.80    1.30
  -2   0 -20    4.60    2.50
  -2   0  20    2.70    1.60
   3   0  20    1.30    1.40
  -3   0  20    0.70    1.50
  -3   0  20    0.80    1.00
   3   0  20    4.50    2.00
   3   0 -20    0.90    1.90
  -3   0 -20    0.60    1.50
   3   0  20   -0.20    1.40
  -3   0  20    0.10    1.90
   3   0  20    1.30    2.20
  -3   0  20   -2.10    1.50
  -4   0  20    2.30    1.80
  -4   0  20    2.50    1.80
   4   0  20    0.20    1.50
   4   0  20    3.20    2.00
  -4   0  20    1.60    1.50
  -4   0 -20    4.00    1.70
   4   0 -20    1.50    1.90
  -5   0 -20    1.60    1.30
   5   0  20    1.00    1.10
  -5   0 -20    1.90    2.10
   5   0 -20    2.40    1.80
  -5   0  20    0.70    1.10
  -5   0  20    1.50    1.30
   5   0  20    1.10    1.50
  -6   0  20    4.40    1.20
   6   0  20    3.00    1.60
   6   0  20    5.30    1.00
   6   0 -20    6.00    1.50
   0   1  20   19.10    3.10
   0  -1 -20   19.20    3.00
   0  -1  20   16.90    2.10
   0  -1  20   16.80    3.40
   0  -1  20   16.00    2.60
   0   1  20   15.70    3.10
   0   1 -20   18.00    3.00
   0   1  20   13.30    3.30
   0   1  20   19.20    2.90
   0  -1  20   26.30    3.90
   0   1  20   18.00    3.50
   0  -1  20   14.60    3.00
   1  -1  20    4.00    2.10
   1  -1  20    8.80    2.10
   1  -1  20    7.60    3.00
  -1   1  20    5.70    2.30
   1  -1  20   -2.30    2.20
  -1  -1 -20    6.70    2.20
   1   1 -20    8.80    3.10
  -1   1  20    6.00    2.70
  -1   1  20    6.10    3.40
   1  -1  20    7.70    2.70
   1  -1  20    8.00    2.70
  -1   1  20    6.40    1.80
   1  -1 -20    6.60    2.20
   1   1  20    9.10    2.30
  -1  -1  20    7.40    2.40
  -1  -1  20    6.40    1.60
  -1  -1  20    3.80    1.80
   1   1  20    7.20    2.60
   1   1  20    7.90    1.90
   1   1  20    7.20    2.30
   1   1  20    4.80    1.90
  -1  -1  20    4.20    2.10
  -1  -1  20    4.30    2.30
  -1  -1  20    7.40    2.70
  -1   1 -20   10.90    2.40
   2  -1  20   45.50    4.50
  -2   1  20   50.79    4.20
  -2  -1 -20   53.89    5.10
   2   1 -20   45.60    4.70
  -2   1  20   51.09    6.30
   2  -1  20   49.70    5.80
   2  -1  20   52.79    4.10
  -2   1  20   55.09    4.50
   2  -1  20   51.59    4.70
  -2   1  20   47.60    5.30
  -2   1  20   50.59    4.70
   2  -1  20   52.59    5.70
   2   1  20   51.89    4.70
  -2  -1  20   46.80    5.70
  -2  -1  20   49.90    4.80
   2   1  20   53.69    6.30
  -2   1 -20   50.79    4.50
   2   1  20   51.09    4.90
  -2  -1  20   44.30    4.70
  -2  -1  20   55.39    5.30
   2  -1 -20   49.40    4.80
   3  -1  20   17.30    2.60
   3  -1  20   22.90    2.70
  -3   1  20   14.20    2.50
  -3   1  20   18.30    2.80
  -3   1  20   24.00    3.50
  -3  -1 -20   15.00    2.40
  -3   1  20   12.90    2.10
   3  -1  20   18.60    3.20
   3  -1  20   17.30    3.60
   3   1 -20   16.40    2.90
  -3  -1  20   21.00    3.10
  -3   1 -20   20.20    2.90
   3  -1 -20   16.50    2.90
  -3  -1  20   14.60    2.90
   3   1  20   13.50    2.60
  -3  -1  20   20.50    3.20
   3   1  20   12.80    2.40
   4  -1  20   22.70    3.40
   4  -1  20   21.00    2.60
   4  -1  20   24.60    3.10
   4   1 -20   20.60    3.00
  -4   1  20   16.50    2.40
  -4   1  20   23.60    3.80
  -4   1  20   16.10    2.20
  -4  -1 -20   24.70    2.90
   4  -1  20   23.60    2.50
   4  -1 -20   27.10    3.60
  -4   1 -20   22.50    3.10
  -4  -1  20   21.00    2.90
   4   1  20   20.50    3.20
  -4  -1  20   24.80    3.40
   4   1  20   16.50    2.70
  -4  -1  20   21.20    3.10
   5   1 -20   -0.20    1.40
   5  -1  20   -0.60    0.90
  -5  -1 -20    1.70    1.10
  -5  -1 -20    2.10    1.60
  -5   1  20    0.90    1.00
  -5   1  20   -1.00    1.10
   5  -1  20    0.90    1.10
  -5   1 -20   -0.10    1.20
  -5  -1  20    1.80    1.40
  -5  -1  20    0.50    1.40
  -5  -1  20    1.40    1.30
   5   1  20   -0.60    1.10
  -5   1 -20    1.60    1.80
   5  -1 -20   -0.20    1.50
   5   1  20    1.00    0.90
   6  -1  20    1.80    1.40
   6   1 -20    4.10    1.40
  -6   1  20    5.20    1.10
  -6   1 -20    5.20    1.00
  -6  -1  20    5.30    1.40
   6   1  20    3.10    1.00
   6  -1 -20    4.20    1.40
   0   2  20   36.70    4.00
   0  -2  20   29.50    4.40
   0   2 -20   32.90    4.00
   0  -2  20   39.10    4.20
   0   2  20   35.20    4.30
   0  -2  20   39.40    4.90
   0  -2 -20   27.30    3.90
   0  -2  20   46.40    5.60
   0   2  20   29.30    3.90
   0  -2  20   33.10    4.40
   0   2  20   31.40    3.70
   1  -2  20   21.60    4.10
  -1   2  20   15.10    3.00
   1  -2  20   25.90    5.80
  -1   2  20   18.40    2.50
   1   2 -20   16.50    2.80
  -1   2  20   22.60    2.90
  -1  -2 -20   19.80    4.00
   1  -2  20   15.20    2.90
  -1   2  20   19.40    4.10
   1  -2  20   19.30    5.30
  -1   2  20    9.80    3.50
   1  -2  20   14.70    3.60
  -1  -2  20   12.60    3.20
  -1  -2  20   16.30    4.60
   1   2  20   19.40    4.50
  -1   2 -20   16.40    2.80
  -1  -2  20   12.80    3.40
   1  -2 -20   18.00    4.30
  -1  -2  20   27.10    4.80
   1   2  20   13.10    2.50
   1   2  20   19.20    3.80
  -1  -2  20   13.90    3.10
   2  -2  20   56.59    6.20
   2  -2  20   57.69    5.10
   2  -2  20   65.19    5.30
  -2   2  20   64.79    5.60
   2   2 -20   56.09    4.90
  -2   2  20   54.59    4.60
  -2   2  20   58.69    5.20
  -2  -2 -20   53.79    4.80
  -2   2  20   58.19    4.80
   2  -2  20   61.89    5.80
   2  -2  20   51.59    4.70
  -2   2 -20   52.89    4.80
  -2  -2  20   65.29    5.80
   2   2  20   61.09    4.80
  -2  -2  20   61.49    5.40
   2   2  20   61.49    5.00
   2  -2 -20   58.69    5.10
  -2  -2  20   54.29    5.20
  -2  -2  20   61.49    5.70
  -2  -2  20   52.09    5.70
  -3   2  20    5.70    1.70
  -3  -2 -20   10.30    2.10
   3  -2  20    9.50    1.50
   3  -2  20   11.90    2.90
   3  -2  20   13.10    2.90
   3  -2  20    6.70    2.20
  -3   2  20   10.70    2.40
   3   2 -20   10.90    2.40
  -3   2  20    7.10    2.30
   3  -2  20   11.20    2.90
  -3  -2  20    8.60    2.10
   3   2  20    9.60    2.50
  -3  -2  20   10.70    2.80
   3  -2 -20   11.20    2.40
  -3  -2  20   10.20    2.50
  -3   2 -20   10.60    2.20
   4  -2  20    1.50    0.90
  -4   2  20    0.30    1.20
   4  -2  20   -1.60    1.60
   4   2 -20   -0.10    1.50
  -4   2  20    2.80    1.30
  -4   2  20    0.00    1.00
   4  -2  20    1.40    1.70
   4  -2  20   -0.10    2.00
  -4  -2 -20   -2.10    1.70
   4  -2  20    0.20    1.40
  -4   2 -20    1.10    1.50
  -4  -2  20    0.30    1.90
   4  -2 -20    0.90    1.60
  -4  -2  20   -1.00    1.30
   4   2  20    0.20    1.60
  -4  -2  20   -0.20    1.60
   5   2 -20    3.30    1.50
  -5   2  20    1.30    0.80
   5  -2  20    2.10    1.80
   5  -2  20    1.00    1.10
  -5  -2 -20    3.40    3.00
  -5  -2 -20    3.30    1.00
  -5   2  20    3.10    1.20
   5   2  20    1.40    0.90
  -5   2 -20    2.70    1.40
  -5   2 -20    5.40    2.50
  -5  -2  20    2.50    1.50
   5   2  20    2.10    1.70
  -5  -2  20    2.40    1.50
  -5  -2  20    2.70    1.60
   5  -2 -20    3.00    1.50
   6   2 -20    2.50    1.10
   6  -2  20    1.30    1.20
   6   2  20    1.30    1.00
  -6  -2  20    3.50    1.20
   6  -2 -20    6.10    1.00
  -6   2 -20    8.10    2.60
   0  -3  20    9.30    2.70
   0  -3  20   10.40    2.50
   0  -3  20   11.80    3.10
   0   3  20   14.30    2.50
   0   3 -20    8.00    2.10
   0  -3 -20   11.40    2.30
   0  -3  20   11.50    3.00
   0   3  20    6.60    2.00
   1  -3  20   37.40    4.20
   1  -3  20   29.10    3.70
   1  -3  20   30.00    3.60
   1  -3  20   26.00    4.00
  -1  -3 -20   31.70    3.50
  -1   3  20   28.30    3.70
   1   3 -20   28.30    3.70
   1  -3  20   19.60    3.70
  -1  -3  20   29.70    3.80
  -1  -3  20   33.60    4.20
  -1  -3  20   39.60    4.80
   1   3  20   31.80    3.70
   1  -3 -20   35.20    3.70
  -1  -3  20   18.50    3.30
   1   3  20   25.60    3.90
  -1  -3  20   16.40    3.80
  -1   3 -20   32.60    3.60
   2  -3  20   25.20    3.60
   2  -3  20   23.90    3.40
   2  -3  20   18.50    2.70
  -2  -3 -20   24.70    3.10
   2  -3  20   19.70    3.60
  -2   3  20   22.90    3.30
   2  -3  20   31.90    4.60
  -2   3  20   26.80    3.40
   2   3 -20   28.50    3.50
  -2  -3  20   26.90    3.90
   2  -3 -20   22.00    3.10
  -2  -3  20   27.90    4.20
   2   3  20   30.00    3.60
  -2   3 -20   26.90    3.30
  -2  -3  20   19.60    3.00
  -2  -3  20   23.50    3.60
   3  -3  20    8.30    2.70
   3  -3  20    6.90    2.40
   3   3 -20    3.10    2.10
  -3  -3 -20    7.70    1.70
   3  -3  20   10.80    2.70
   3  -3  20    7.70    3.10
  -3   3  20    7.70    2.00
  -3   3 -20    8.30    1.90
   3  -3 -20    8.10    2.00
  -3  -3  20    8.50    2.60
   3   3  20    8.10    2.30
  -3  -3  20    8.30    2.40
  -3  -3  20    4.60    2.30
  -4  -3 -20   15.00    1.90
   4  -3  20   15.70    2.90
  -4   3  20    8.10    1.90
   4  -3  20   14.80    4.20
  -4   3  20   14.70    2.40
   4  -3  20   13.60    3.00
  -4  -3 -20   18.00    3.40
   4   3 -20   12.70    2.30
  -4  -3  20   16.20    2.70
  -4  -3  20   21.60    3.60
   4   3  20   12.90    2.80
  -4   3 -20   11.30    2.50
  -5  -3 -20    0.60    1.90
  -5   3  20    0.40    0.80
   5  -3  20    2.50    1.70
   5   3 -20    0.10    1.20
   5  -3  20    1.90    0.80
   5  -3  20    0.60    1.20
  -5  -3  20    2.70    1.60
  -5  -3  20    1.50    1.50
  -5   3 -20    2.80    2.20
   5  -3 -20    1.30    1.20
  -5  -3  20    3.60    1.40
   5   3  20    2.50    1.60
   5   3  20    0.80    1.10
  -5   3 -20    2.20    1.20
   0  -4  20    0.80    1.80
   0  -4  20    0.90    2.40
   0  -4  20   -0.70    1.60
   0  -4 -20    0.00    1.40
   0   4  20   -1.00    1.40
   0  -4  20   -1.20    1.80
   1  -4  20    4.20    2.40
  -1   4  20    3.30    1.80
   1  -4  20    4.50    1.90
   1  -4  20    3.30    1.90
   1  -4  20    2.20    2.10
  -1  -4 -20    5.60    1.80
   1  -4  20    1.30    2.50
  -1  -4  20    7.10    2.50
  -1  -4  20    2.60    2.30
  -1  -4  20    2.70    2.90
  -1   4 -20    8.10    2.90
  -1  -4  20    4.70    2.00
   1   4  20    3.70    2.00
   1  -4 -20    4.80    1.70
  -2  -4 -20    5.60    1.60
   2  -4  20    5.10    2.60
   2  -4  20    6.50    2.50
   2  -4  20    5.20    3.30
  -2   4  20    3.00    1.70
   2  -4  20    1.50    2.30
  -2  -4  20    7.20    2.20
  -2  -4  20    7.20    2.60
  -2  -4  20    8.20    2.60
   2  -4 -20    7.30    1.80
  -2  -4  20    4.10    2.80
   2   4  20    5.60    1.90
   3  -4  20    6.30    2.20
   3  -4  20    6.00    2.20
   3  -4  20    6.10    3.20
  -3  -4 -20    9.10    1.40
  -3   4  20    8.40    2.00
  -3  -4  20    8.70    2.10
  -3  -4  20    8.80    2.50
   3   4  20    8.80    2.00
  -3   4 -20   11.50    2.10
  -3  -4  20    9.40    2.60
  -4   4  20    4.50    1.50
   4  -4  20    4.70    2.80
   4  -4  20    0.40    1.40
   4   4 -20    4.70    1.60
   4  -4  20    1.70    2.80
  -4   4 -20    2.70    2.40
  -4  -4  20    1.00    1.80
  -4   4 -20    3.50    1.40
   4   4  20    1.30    1.50
  -4  -4  20    1.10    1.50
  -4  -4  20    3.40    1.80
   4  -4 -20    2.40    1.10
  -5   4  20    3.20    1.00
  -5  -4 -20    6.80    1.80
   5  -4  20    4.10    1.60
   5  -4  20    3.50    1.20
   5  -4  20    5.00    1.00
   5   4  20    7.30    1.60
  -5  -4  20    5.20    1.70
  -5  -4  20    9.10    1.90
  -5  -4  20    8.70    1.50
   0  -5  20    1.90    2.20
   0  -5  20    3.50    2.00
   0  -5  20    4.50    2.50
   0   5  20    1.90    1.90
   0  -5 -20    2.40    1.50
   0  -5  20    1.50    1.70
  -1  -5 -20    7.90    1.60
  -1   5  20    7.90    2.20
   1  -5  20    7.80    3.30
   1  -5  20    7.60    2.60
   1  -5  20    8.50    2.40
   1  -5  20    3.60    1.60
   1  -5  20    8.30    2.40
  -1  -5  20   10.20    2.90
   1   5  20    7.70    2.10
  -1  -5  20    4.50    3.00
  -1  -5  20    6.90    2.40
   1  -5 -20    8.80    2.00
  -1  -5  20    7.90    2.10
   2  -5  20    1.80    2.90
   2  -5  20   -1.90    1.70
  -2   5  20   -1.30    1.20
   2  -5  20   -1.30    2.60
   2  -5  20   -2.50    1.60
   2   5  20   -0.70    1.30
  -2  -5  20    1.70    1.90
   2  -5 -20   -0.70    1.00
  -2  -5  20   -2.00    1.40
  -2  -5  20    0.10    2.00
  -2  -5  20   -4.80    2.00
  -2   5 -20   -0.20    1.40
   3  -5  20    7.00    3.60
   3  -5  20    5.20    2.10
  -3   5  20    5.40    1.80
   3  -5  20    4.20    1.90
   3  -5  20    3.50    1.80
   3  -5 -20    6.70    1.20
  -3   5 -20    5.00    1.40
  -3  -5  20    5.10    1.90
  -3  -5  20    7.30    2.40
  -3   5 -20   12.20    2.70
   3   5  20   10.30    2.10
  -3  -5  20    6.10    2.30
   4  -5  20    0.20    1.20
   4  -5  20    2.00    1.90
  -4   5  20   -0.10    0.90
   4  -5  20    2.10    2.50
  -4   5 -20   -2.30    1.20
  -4  -5  20    0.30    1.30
  -4  -5  20   -0.10    1.40
  -4  -5  20    2.30    1.60
   4   5  20   -0.40    1.00
  -4   5 -20    0.80    1.20
   5  -5  20    2.60    1.30
  -5   5  20    2.50    0.70
  -5  -5  20    2.00    1.10
  -5  -5  20    2.80    1.00
   5   5  20    1.70    0.90
  -5   5 -20    3.00    0.70
   0  -6  20    3.90    2.80
   0  -6  20    4.90    1.50
   0   6  20    6.80    2.10
   0  -6  20    3.00    2.00
   1  -6  20    4.10    1.90
  -1   6  20    0.10    1.50
   1  -6  20    5.30    3.10
   1  -6  20    4.50    2.70
   1  -6  20    0.10    2.00
  -1  -6  20    2.70    2.50
  -1  -6  20    5.00    1.80
   1   6  20    2.20    1.70
  -1  -6  20    2.60    1.90
  -1  -6  20    2.90    2.50
   2  -6  20   20.50    3.90
   2  -6  20   20.40    3.20
   2  -6  20   16.30    2.60
   2  -6  20   12.70    2.70
  -2   6  20   19.10    2.60
  -2   6 -20    9.20    1.80
  -2  -6  20   17.00    2.30
  -2  -6  20   13.50    2.30
  -2   6 -20   21.30    4.30
   2   6  20   12.00    2.00
  -2  -6  20   19.20    3.00
   3  -6  20   18.70    4.00
   3  -6  20   15.00    2.10
   3  -6  20   12.90    2.20
  -3   6  20   13.60    2.20
   3   6  20   14.60    2.30
  -3  -6  20   18.70    2.30
  -3  -6  20   18.70    2.70
  -3  -6  20   11.00    2.20
   4  -6  20    5.20    1.90
  -4   6  20    3.20    1.00
   4  -6  20    4.40    1.70
   4  -6  20    1.50    1.30
  -4  -6  20    5.20    1.20
   4   6  20    2.50    1.00
  -4  -6  20    4.80    1.60
  -4   6 -20    2.50    1.10
  -4  -6  20    1.70    1.20
   0   7  20    1.40    1.30
   0  -7  20   -0.90    2.20
   0  -7  20    1.00    1.80
   0  -7  20    2.00    2.50
   1  -7  20    1.20    1.60
   1  -7  20    2.10    3.10
   1  -7  20    0.00    1.70
   1  -7  20    0.30    2.50
  -1   7  20   -0.20    0.90
  -1  -7  20    3.40    2.30
  -1  -7  20    0.10    2.10
   1   7  20   -0.80    1.10
  -1  -7  20    1.30    2.20
  -1  -7  20   -0.80    1.30
   2  -7  20    6.40    3.70
   2  -7  20    2.90    1.60
   2  -7  20    5.50    1.60
  -2   7  20    6.00    1.50
   2  -7  20    4.50    1.50
  -2  -7  20    3.30    2.40
  -2  -7  20    3.10    1.20
   2   7  20    2.80    1.20
   3  -7  20    4.30    1.70
  -3   7  20    1.70    0.80
   3  -7  20    3.10    2.20
   3  -7  20    2.60    1.30
  -3  -7  20    2.00    1.00
  -3  -7  20    2.80    1.50
   3   7  20    1.40    1.00
   0  -8  20    5.90    2.50
   0   8  20    5.30    1.30
   1  -8  20    1.90    1.80
  -1   8  20    2.00    1.00
   1  -8  20    0.90    2.50
   1   8  20    0.50    0.80
   0   0 -21   -0.90    1.50
   0   0  21   -0.80    2.00
   0   0  21    0.60    1.10
   0   0  21   -0.50    1.60
   0   0  21   -1.10    1.40
   0   0  21    0.40    1.90
   1   0 -21    1.50    1.80
   1   0  21   -0.50    1.10
   1   0  21   -1.90    1.30
  -1   0  21    2.90    2.10
   1   0  21    0.10    1.40
  -1   0  21    0.60    1.00
  -1   0  21    0.50    1.40
  -1   0  21    0.50    1.90
  -1   0  21    0.80    2.20
   1   0  21    0.70    1.90
  -1   0 -21   -1.60    1.50
   2   0  21  143.89    8.40
   2   0  21  131.69    9.00
   2   0 -21  134.79    8.80
  -2   0 -21  140.19    8.70
  -2   0  21  139.59    7.80
  -2   0  21  155.78    8.90
   2   0  21  151.98    8.70
  -2   0  21  130.89    9.30
  -2   0  21  139.19    9.10
  -2   0  21  142.79    8.90
   3   0 -21    1.30    1.80
   3   0  21    2.00    1.50
   3   0  21   -1.20    1.80
   3   0  21    1.90    1.70
  -3   0  21   -0.70    1.90
  -3   0 -21    0.50    1.40
  -3   0  21   -0.30    1.70
  -3   0  21   -0.30    1.30
  -4   0  21    0.30    1.40
   4   0  21    0.20    1.70
  -4   0  21    1.30    1.50
  -4   0  21    0.60    1.20
   4   0  21    1.60    1.40
   4   0 -21    1.90    2.20
   5   0  21    1.30    1.10
  -5   0  21    1.60    1.20
   5   0  21    0.80    1.00
  -5   0 -21    1.10    1.00
  -5   0  21    0.30    1.00
  -5   0 -21    5.00    1.90
   5   0 -21    1.20    1.30
   0   1 -21   22.20    3.10
   0   1  21   27.20    3.20
   0   1  21   19.40    3.50
   0  -1  21   23.70    3.60
   0   1  21   22.30    2.70
   0  -1  21   22.70    4.50
   0  -1  21   23.30    3.10
   0  -1  21   19.40    3.30
   0  -1  21   21.40    4.90
   0  -1 -21   25.60    3.50
   0   1  21   22.40    3.40
   0   1  21   26.80    3.50
  -1   1  21   53.29    5.50
   1   1 -21   44.90    4.50
  -1   1  21   51.89    4.30
   1  -1  21   53.59    5.70
   1  -1  21   48.40    3.50
   1  -1  21   48.60    5.10
   1  -1  21   51.99    4.80
  -1   1  21   55.39    4.30
  -1   1  21   51.99    5.00
   1  -1  21   52.49    4.50
  -1   1  21   55.79    4.90
  -1  -1 -21   51.29    4.50
  -1  -1  21   52.19    5.20
  -1  -1  21   48.50    5.40
  -1   1 -21   41.10    4.40
  -1  -1  21   55.49    4.80
   1   1  21   50.99    4.40
   1   1  21   49.70    4.70
  -1  -1  21   48.70    5.00
   1  -1 -21   55.19    4.80
  -1  -1  21   49.40    6.40
  -2  -1 -21    7.70    2.10
   2  -1  21    7.80    2.60
   2  -1  21   11.00    2.60
   2   1 -21    7.20    2.10
   2  -1  21    6.00    1.70
   2  -1  21   10.70    2.20
  -2   1  21    7.40    1.80
  -2   1  21    6.20    1.60
  -2   1  21   10.50    2.40
  -2   1  21    6.90    2.20
   2  -1  21    7.60    2.70
  -2  -1  21    6.80    2.50
   2  -1 -21    8.40    2.30
  -2  -1  21    6.10    2.20
   2   1  21    7.80    2.00
  -2  -1  21    9.20    2.00
   2   1  21    6.10    1.80
  -2   1 -21   10.50    2.20
  -2  -1  21    7.90    2.50
   3  -1  21   14.80    2.50
  -3   1  21   13.30    2.20
   3  -1  21   12.90    3.00
  -3   1  21   12.10    1.70
  -3   1  21   12.00    2.60
  -3  -1 -21   15.70    2.40
  -3   1  21   11.60    2.10
   3  -1  21   16.20    2.70
   3   1 -21   10.50    2.30
   3  -1  21   10.00    2.10
   3  -1  21   10.80    2.60
   3   1  21    9.40    2.00
  -3  -1  21   15.60    2.80
   3  -1 -21   11.60    2.40
  -3  -1  21    5.30    1.90
  -3   1 -21   12.40    2.30
  -3  -1  21    5.90    2.30
  -4  -1 -21    1.50    1.50
   4  -1  21    0.60    1.60
  -4   1  21    1.00    1.30
   4   1 -21    0.40    1.50
   4  -1  21    1.80    1.10
   4  -1  21   -1.00    1.30
  -4   1  21    0.70    0.70
   4  -1  21    0.20    1.40
  -4   1  21   -0.20    1.20
  -4   1 -21    0.90    1.70
  -4  -1  21    1.90    1.60
  -4  -1  21   -1.40    1.30
   4  -1 -21    2.50    1.80
   4   1  21    1.30    1.60
   4   1  21   -0.60    1.20
  -4  -1  21    0.70    1.50
  -5  -1 -21    9.40    2.30
   5  -1  21    8.80    2.00
   5   1 -21   10.70    1.90
   5  -1  21    7.30    1.40
  -5   1  21   10.30    1.70
  -5  -1 -21   13.20    1.60
   5  -1 -21   11.80    1.80
  -5  -1  21   11.00    1.70
  -5   1 -21   13.70    2.20
  -5  -1  21   10.20    1.70
   5   1  21    5.10    1.40
  -5   1 -21   12.50    1.60
  -5  -1  21   11.30    2.30
   5   1  21    9.40    1.70
   0   2  21   23.50    3.10
   0   2 -21   27.40    3.40
   0  -2  21   21.70    3.20
   0  -2  21   33.50    3.70
   0  -2  21   23.60    3.70
   0  -2 -21   24.60    3.50
   0   2  21   30.90    3.80
   0  -2  21   23.20    3.70
   0   2  21   25.60    3.30
  -1   2  21    3.10    2.00
  -1   2  21    0.10    1.40
   1  -2  21    3.30    2.40
  -1  -2 -21    2.80    1.80
   1  -2  21    2.40    1.90
   1   2 -21    3.60    1.70
   1  -2  21    2.80    1.90
   1  -2  21    0.80    2.50
   1  -2  21    3.30    3.30
  -1   2  21    2.40    1.80
  -1  -2  21    1.30    2.00
   1   2  21    4.10    1.50
  -1  -2  21    3.00    2.40
  -1  -2  21    5.80    2.10
  -1   2 -21    4.20    1.70
   1   2  21    1.60    1.70
   1  -2 -21    2.60    1.80
  -1  -2  21    2.10    2.00
   2   2 -21    3.50    1.70
   2  -2  21   -0.10    2.10
  -2   2  21    4.00    1.80
  -2  -2 -21   -0.20    1.40
  -2   2  21    0.60    1.70
   2  -2  21   -2.10    1.90
   2  -2  21    0.10    2.30
  -2   2  21    1.00    1.70
   2  -2  21   -0.30    1.80
   2   2  21   -1.00    1.00
  -2   2 -21    0.40    1.50
  -2  -2  21    0.30    2.10
  -2  -2  21    0.70    1.90
  -2  -2  21    0.50    1.50
   2  -2 -21   -0.30    1.50
  -2  -2  21   -0.50    2.00
   2   2  21   -1.70    1.10
   3  -2  21    1.40    2.70
   3   2 -21    3.40    2.00
  -3   2  21    5.00    2.10
   3  -2  21    8.90    2.70
  -3  -2 -21    5.80    1.60
   3  -2  21    7.00    2.40
  -3   2  21    3.90    1.40
  -3   2  21    4.60    1.40
  -3  -2  21    7.00    2.10
   3   2  21    3.40    1.70
  -3  -2  21    2.20    2.00
  -3   2 -21    6.10    1.80
  -3  -2  21    6.40    2.40
   3  -2 -21    5.20    1.90
   4  -2  21    1.70    1.60
  -4   2  21    0.30    0.90
   4   2 -21    0.50    1.40
  -4  -2 -21    0.50    1.30
   4  -2  21    1.60    1.80
   4  -2  21    2.60    1.30
  -4  -2 -21    1.50    1.20
  -4   2  21   -0.90    1.10
  -4  -2  21    0.60    1.50
  -4   2 -21    2.50    1.50
  -4  -2  21   -0.70    1.50
   4   2  21    0.60    1.40
   4  -2 -21    0.00    1.60
   4   2  21   -0.50    1.20
  -4  -2  21    0.50    1.60
   5  -2  21    0.50    1.00
   5   2 -21    0.70    1.20
  -5   2  21    3.00    1.40
   5  -2  21   -0.40    1.70
  -5   2 -21    2.50    1.80
  -5   2 -21    1.00    1.10
   5  -2 -21    1.00    1.10
  -5  -2  21    0.20    1.30
  -5  -2  21    0.60    1.00
  -5  -2  21    0.20    1.10
   5   2  21    0.20    1.00
   0  -3  21   -1.50    2.20
   0  -3  21    1.20    2.00
   0  -3  21   -0.70    1.70
   0  -3  21   -0.80    2.10
   0   3  21   -0.60    1.50
   0   3 -21    2.40    1.70
   0  -3 -21    1.80    1.60
   1  -3  21    1.10    2.90
   1   3 -21   -0.90    2.40
   1  -3  21    3.00    2.10
   1  -3  21    0.90    1.40
   1  -3  21   -1.80    2.30
  -1  -3 -21    1.50    1.50
   1  -3  21    1.50    1.80
  -1   3  21    1.80    1.40
   1  -3 -21    2.40    1.60
  -1  -3  21    0.60    1.60
  -1   3 -21    0.40    1.30
  -1  -3  21   -0.30    2.10
  -1  -3  21    0.90    2.00
  -1  -3  21   -0.60    1.90
   1   3  21    1.40    1.60
  -2  -3 -21   -0.10    1.20
   2  -3  21   -0.20    2.10
   2   3 -21   -1.50    1.50
   2  -3  21   -0.50    2.50
   2  -3  21   -2.10    2.70
   2  -3  21   -1.90    1.80
  -2   3  21   -0.10    1.30
  -2  -3  21    0.90    1.90
  -2  -3  21    1.10    1.80
   2  -3 -21   -0.60    1.40
   2   3  21    0.60    1.40
  -2  -3  21   -1.40    1.40
  -2   3 -21    2.50    1.50
  -2  -3  21   -1.70    2.10
   3  -3  21    0.90    3.50
  -3  -3 -21    4.00    2.20
   3  -3  21    3.40    2.10
   3  -3  21    2.40    1.90
   3  -3  21    9.20    2.50
   3   3 -21    1.90    1.50
  -3   3  21    2.20    1.40
  -3   3 -21    2.70    1.70
  -3  -3  21   -0.90    1.60
   3  -3 -21    1.80    1.50
  -3  -3  21    2.40    2.00
  -3  -3  21    2.60    1.70
   3   3  21    1.10    1.40
   4   3 -21    0.20    1.40
   4  -3  21    1.80    1.70
   4  -3  21   -1.10    1.60
   4  -3  21   -0.90    1.30
  -4   3  21    0.50    1.00
  -4  -3  21    1.70    1.40
  -4  -3  21    0.40    1.60
  -4   3 -21    0.70    1.20
  -4  -3  21   -0.30    1.50
  -4   3 -21    1.80    2.20
   4  -3 -21    1.00    1.20
   4   3  21    0.90    1.30
   4   3  21   -0.70    1.10
   5  -3  21    2.20    1.40
  -5   3  21    1.90    1.00
   5   3 -21    0.90    1.10
   5  -3  21    0.10    1.80
  -5   3 -21    2.50    1.20
  -5  -3  21    2.50    1.20
   5   3  21    2.90    1.30
  -5  -3  21    2.90    1.30
   5  -3 -21    1.30    0.80
  -5   3 -21    2.80    1.90
  -5  -3  21    2.90    1.20
   0  -4  21   32.30    3.80
   0  -4 -21   41.10    5.00
   0   4 -21   34.00    3.30
   0  -4  21   37.30    4.40
   0  -4  21   35.30    4.20
   0  -4  21   26.30    3.80
   0   4  21   35.40    3.70
  -1  -4 -21   19.40    2.40
   1  -4  21   13.20    3.60
   1  -4  21   13.60    2.70
   1  -4  21    9.70    2.50
  -1   4  21   10.70    2.20
   1  -4  21    7.30    2.30
   1  -4  21   18.80    3.40
   1  -4 -21   15.60    2.80
  -1  -4  21   17.00    2.80
   1   4  21   15.10    2.60
  -1  -4  21   12.90    3.10
  -1  -4  21    9.70    2.40
  -1   4 -21   18.40    2.50
  -1  -4  21   10.20    3.00
   2  -4  21    2.90    2.00
  -2   4  21    4.20    1.60
  -2  -4 -21    4.70    1.40
   2  -4  21    4.70    2.60
   2  -4  21    9.10    3.20
   2  -4  21    3.70    2.10
  -2  -4  21    2.20    2.00
   2   4  21    6.90    2.00
  -2  -4  21    3.20    2.20
  -2  -4  21    4.30    1.80
  -2  -4  21    6.60    2.20
  -2   4 -21    4.10    1.60
  -3   4  21    2.20    1.30
   3  -4  21    4.50    2.00
   3  -4  21    3.10    1.70
   3  -4  21    2.50    1.90
   3   4 -21    2.80    1.40
   3  -4  21    0.30    3.00
  -3  -4  21    3.50    1.80
  -3   4 -21    4.10    1.50
   3   4  21    4.60    1.70
  -3  -4  21    3.20    1.80
   3  -4 -21    2.90    1.40
  -3  -4  21    5.70    2.30
   4  -4  21   -0.10    1.10
   4  -4  21    0.00    1.30
  -4   4  21    0.70    0.80
   4  -4  21    1.70    1.80
  -4   4 -21    2.00    1.10
  -4  -4  21    0.20    1.50
  -4   4 -21    5.30    2.00
  -4  -4  21    1.80    1.60
   4  -4 -21    1.40    0.80
  -4  -4  21    2.30    1.30
   4   4  21    0.40    1.10
   4   4  21    1.30    1.20
  -5  -4  21    2.00    1.10
  -5  -4  21    1.40    0.90
   0  -5  21    0.50    2.40
   0  -5  21    0.60    1.80
   0  -5 -21    1.10    1.00
   0  -5  21    0.60    2.60
   0   5  21    2.00    1.50
   0  -5  21    1.50    1.50
   1  -5  21   14.10    2.80
   1  -5  21   24.00    4.20
  -1   5  21   12.20    2.50
   1  -5  21   13.40    1.90
   1  -5  21   16.50    3.10
   1  -5  21   15.60    2.70
  -1   5 -21   13.00    2.10
   1  -5 -21   19.80    1.90
   1   5  21   20.10    3.20
  -1  -5  21   23.30    3.10
  -1  -5  21   16.70    2.70
  -1  -5  21   14.10    3.80
  -2   5  21   12.70    2.00
   2  -5  21   13.50    3.00
   2  -5  21    7.90    2.10
   2  -5  21   14.50    2.40
   2  -5  21   10.90    3.50
  -2  -5  21   19.10    2.70
   2   5  21   12.10    2.10
  -2  -5  21   20.60    3.10
  -2   5 -21   13.70    1.80
  -2  -5  21   13.30    2.50
   3  -5  21    1.70    1.40
  -3   5  21    3.00    1.30
   3  -5  21    3.00    1.60
   3  -5  21    4.90    1.60
   3  -5  21    7.30    3.50
   3   5  21    1.40    1.20
  -3   5 -21    0.70    1.00
  -3  -5  21    1.00    1.50
  -3  -5  21    4.70    2.10
  -3   5 -21    2.50    2.00
  -3  -5  21    5.60    1.60
  -4   5  21    3.40    1.10
   4  -5  21    2.60    1.20
   4  -5  21    4.00    1.60
   4  -5  21    3.70    1.50
   4   5  21    3.00    1.00
  -4  -5  21    6.80    1.80
  -4   5 -21    1.00    0.80
  -4  -5  21    4.30    1.30
  -4  -5  21    1.00    1.30
   4   5  21    4.30    1.30
   0   6  21    0.70    1.20
   0  -6  21    1.10    1.90
   0  -6  21    2.40    1.20
   0  -6  21    2.40    2.70
   0  -6  21    0.70    1.70
   1  -6  21    3.80    1.80
   1  -6  21    3.80    2.80
  -1   6  21    6.10    1.70
   1  -6  21    7.40    2.80
  -1  -6  21    2.80    1.30
  -1  -6  21    2.10    2.40
  -1  -6  21    6.20    1.80
   1   6  21    5.70    1.70
  -1  -6  21    3.90    1.80
   2  -6  21    0.90    1.40
  -2   6  21    1.10    1.10
   2  -6  21    1.50    1.50
   2  -6  21   -0.10    1.50
   2  -6  21    1.30    3.30
  -2  -6  21    1.00    1.20
  -2  -6  21   -1.00    1.20
   2   6  21    0.50    0.80
  -2  -6  21    0.50    1.90
   3  -6  21    5.70    3.10
   3  -6  21    6.20    1.90
   3  -6  21    5.30    1.50
  -3  -6  21    7.20    2.30
   3   6  21    4.80    1.20
  -3  -6  21    5.40    1.80
  -3  -6  21    9.20    1.50
   0  -7  21   13.40    2.50
   0  -7  21   10.70    3.10
   0  -7  21    6.90    2.00
   0   7  21    4.90    1.30
   1  -7  21    2.60    3.30
  -1   7  21    1.10    0.90
   1  -7  21    0.80    1.40
   1  -7  21    3.00    1.70
  -1  -7  21    2.40    2.10
   1   7  21    0.50    0.80
  -1  -7  21   -0.50    2.10
   2  -7  21    7.60    2.90
  -2   7  21    6.10    1.10
   2  -7  21    4.60    1.60
  -2  -7  21    7.50    2.10
   2   7  21    5.50    1.20
  -2  -7  21    8.70    1.60
   0   0  22   33.70    3.60
   0   0  22   35.20    2.80
   0   0 -22   32.20    3.70
   0   0  22   33.80    4.40
   0   0  22   22.80    4.90
   0   0  22   29.10    3.80
   1   0  22    1.30    1.70
   1   0  22   -1.00    1.10
  -1   0  22   -0.10    1.60
   1   0  22   -0.80    1.40
   1   0  22    1.50    2.10
  -1   0  22    1.00    1.40
  -1   0 -22    0.50    1.50
  -1   0  22   -1.70    1.60
   1   0 -22   -1.60    1.30
   1   0  22    5.30    2.80
  -1   0  22    2.70    2.00
  -1   0  22    0.10    1.20
   2   0  22   60.09    5.20
   2   0 -22   55.69    4.50
   2   0  22   45.80    4.30
  -2   0  22   51.29    4.90
  -2   0  22   54.09    4.90
  -2   0 -22   57.99    4.50
   2   0  22   50.49    4.60
   2   0  22   47.20    4.90
  -2   0  22   59.99    4.60
  -2   0  22   45.10    5.30
   2   0  22   52.49    3.90
   3   0  22   17.00    2.60
   3   0 -22   13.00    2.40
  -3   0  22   14.70    2.40
  -3   0  22   18.00    2.30
   3   0  22   11.90    2.80
  -3   0  22   11.60    2.80
   3   0  22   15.80    2.20
   3   0  22    9.80    2.40
  -3   0 -22   16.30    2.30
   4   0  22    0.60    1.40
   4   0  22   -0.80    1.10
  -4   0  22   -0.90    1.00
  -4   0  22   -0.90    1.10
  -4   0 -22    1.00    1.90
   4   0  22    1.20    0.90
   4   0 -22    2.40    1.40
  -4   0 -22    1.70    1.20
  -5   0  22   -0.30    0.80
   5   0  22    0.60    1.00
  -5   0 -22    1.10    0.80
   5   0 -22    1.10    1.10
   0   1  22    1.80    1.80
   0  -1  22   -0.30    2.10
   0  -1  22    0.70    1.50
   0  -1 -22   -0.50    1.60
   0   1  22    0.00    1.10
   0   1  22    0.20    1.40
   0   1 -22   -0.30    1.50
   0   1  22    1.90    1.40
   0  -1  22    1.60    1.50
   0  -1  22    1.10    2.10
   1  -1  22   48.80    4.20
   1  -1  22   37.20    4.60
  -1   1  22   43.90    3.60
   1  -1  22   44.60    5.10
  -1   1  22   45.80    4.50
   1   1 -22   36.00    3.90
  -1   1  22   46.20    4.30
  -1   1  22   38.80    4.70
   1  -1  22   47.40    4.40
  -1  -1 -22   45.60    4.10
  -1  -1  22   42.40    4.50
   1  -1 -22   42.50    4.10
  -1  -1  22   46.50    4.50
  -1   1 -22   45.80    4.00
   1   1  22   44.20    4.10
  -1  -1  22   46.90    4.10
   1   1  22   49.20    3.90
  -1  -1  22   42.50    4.90
   2  -1  22    0.70    1.90
   2  -1  22   -1.50    2.00
  -2   1  22    5.60    1.90
   2  -1  22    1.40    2.00
  -2   1  22    2.60    1.50
  -2  -1 -22    0.70    1.40
  -2   1  22    1.80    1.50
  -2   1  22    0.60    2.10
   2  -1  22    1.50    1.80
   2   1 -22    2.30    1.60
  -2   1  22    2.00    1.40
  -2  -1  22    2.30    2.10
   2   1  22    2.30    1.40
   2  -1 -22    0.10    1.60
  -2   1 -22    1.50    1.50
   2   1  22   -0.30    1.10
  -2  -1  22    1.10    1.50
  -2  -1  22   -0.90    1.90
  -2  -1  22    1.00    1.80
  -3   1  22    4.10    0.90
   3  -1  22    2.20    1.90
  -3  -1 -22    2.90    1.60
   3  -1  22    2.00    2.00
  -3   1  22    2.20    1.80
   3   1 -22    5.30    1.70
  -3   1  22    2.50    1.20
   3  -1  22    2.80    1.50
  -3  -1  22    4.30    1.70
  -3   1 -22    5.40    1.80
  -3  -1  22    4.00    2.30
  -3  -1  22    0.90    1.80
   3   1  22    4.90    1.90
   3   1  22    0.60    2.10
  -4  -1 -22   27.20    2.50
  -4   1  22   19.80    2.30
   4  -1  22   17.40    2.60
   4  -1  22   19.40    2.70
   4   1 -22   27.50    2.70
  -4  -1  22   29.20    2.90
  -4   1 -22   30.90    3.70
   4  -1 -22   24.00    2.70
  -4  -1  22   23.70    2.70
  -4  -1  22   20.60    2.60
   4   1  22   25.50    2.60
   4   1  22   20.30    2.60
  -4   1 -22   29.30    2.80
   5   1 -22    4.60    1.10
   5  -1  22    5.20    1.40
   5  -1 -22    4.60    1.30
  -5  -1  22    5.10    1.20
  -5  -1  22    4.40    1.50
  -5   1 -22    6.00    1.10
  -5   1 -22    7.80    2.30
   5   1  22    3.80    1.30
   0  -2 -22    5.00    1.80
   0   2  22    3.40    1.40
   0  -2  22    4.30    1.90
   0  -2  22    0.90    2.20
   0   2 -22    5.70    1.90
   0   2  22    2.70    1.60
   0  -2  22    1.70    2.60
   0  -2  22    3.70    1.70
  -1   2  22    3.20    1.50
   1  -2  22    1.00    1.50
   1  -2  22   -0.30    2.60
   1  -2  22   -1.50    1.50
  -1   2  22    0.50    1.60
   1  -2  22    1.70    2.20
  -1  -2 -22    0.70    1.40
   1  -2 -22    2.10    1.60
  -1   2 -22   -0.50    1.20
  -1  -2  22    3.30    2.00
  -1  -2  22   -0.20    2.10
   1   2  22    2.10    1.50
   1   2  22    1.00    1.10
  -1  -2  22    0.70    1.50
  -1  -2  22    0.40    1.70
   2   2 -22    2.40    1.40
   2  -2  22    1.70    1.80
   2  -2  22    1.50    2.10
  -2  -2 -22    1.30    1.40
   2  -2  22    0.60    2.50
  -2   2  22    3.00    1.90
   2  -2  22    2.30    2.10
  -2   2  22    3.50    1.50
  -2  -2  22   -0.10    1.90
  -2  -2  22    4.40    1.90
   2  -2 -22    1.20    1.50
  -2  -2  22    4.50    2.30
   2   2  22    2.70    1.60
  -2  -2  22    2.70    1.80
  -2   2 -22    1.20    2.00
   3   2 -22    6.30    1.60
  -3   2  22    4.20    1.20
   3  -2  22    4.00    2.10
   3  -2  22    4.90    2.10
   3  -2  22    4.50    1.80
  -3  -2 -22    7.60    1.80
  -3  -2  22    6.10    2.00
  -3  -2  22    7.90    2.30
   3  -2 -22    6.60    2.20
  -3   2 -22    6.10    1.70
   3   2  22    5.10    1.90
  -3  -2  22    5.00    2.60
  -4  -2 -22    4.10    1.20
   4  -2  22    2.10    1.40
   4  -2  22    3.40    1.50
   4   2 -22    2.70    1.20
  -4   2 -22    5.00    1.40
  -4  -2  22    4.00    1.70
   4   2  22    4.10    1.30
  -4   2 -22    4.60    1.90
  -4  -2  22    3.20    1.40
   4   2  22    0.90    1.10
  -4  -2  22    5.10    1.80
   4  -2 -22    3.50    1.40
   5   2 -22    1.90    0.90
   5  -2  22    3.10    1.20
   5   2  22    1.60    1.30
  -5  -2  22    0.90    1.00
  -5  -2  22    3.70    1.10
  -5   2 -22    3.30    0.90
   5   2  22    0.80    1.00
   0  -3  22   41.30    4.10
   0  -3  22   38.60    4.30
   0  -3 -22   38.80    3.50
   0   3 -22   35.00    3.40
   0  -3  22   34.90    4.40
   0  -3  22   27.90    3.70
   0   3  22   37.50    3.60
   1  -3  22    9.60    2.70
   1  -3  22   10.20    2.30
   1  -3  22   14.30    2.60
  -1   3  22   12.40    2.20
   1  -3  22   11.50    3.20
  -1  -3 -22   14.10    2.10
   1   3 -22   14.90    2.20
   1  -3 -22   13.50    2.20
  -1  -3  22   17.80    3.10
  -1  -3  22   13.10    3.00
   1   3  22    9.30    1.90
  -1  -3  22   11.60    2.30
  -1  -3  22    9.30    3.00
  -1   3 -22   16.40    2.40
  -2   3  22   12.10    2.40
   2  -3  22   20.40    3.90
   2   3 -22   12.10    2.00
   2  -3  22    9.90    2.60
   2  -3  22   12.40    2.40
   2  -3  22   14.10    3.30
  -2  -3  22   10.70    2.60
  -2  -3  22   10.70    2.40
   2   3  22   12.20    2.40
  -2  -3  22   11.50    3.50
   2  -3 -22   13.70    2.50
  -2  -3  22    8.30    2.70
  -2   3 -22   14.00    2.10
   3  -3  22    1.60    1.90
   3   3 -22    2.40    1.50
   3  -3  22    5.10    2.00
  -3  -3 -22    3.80    1.10
   3  -3  22    0.20    2.30
   3  -3  22    5.10    1.70
  -3   3  22    5.50    1.30
  -3  -3  22    3.40    1.70
  -3  -3  22    2.70    2.00
   3   3  22    2.70    1.50
   3  -3 -22    2.60    1.30
  -3  -3  22    3.30    2.00
  -3   3 -22    5.60    1.50
   4  -3  22    2.40    0.90
   4  -3  22    1.40    1.30
  -4   3  22    2.20    0.80
   4   3 -22    4.20    1.10
   4  -3  22    3.10    1.30
  -4  -3  22    2.00    1.60
  -4  -3  22    1.90    1.40
   4   3  22    2.60    1.00
  -4  -3  22    3.10    1.20
  -4   3 -22    7.30    2.00
   4   3  22    2.50    1.20
   4  -3 -22    2.30    1.20
  -4   3 -22    2.10    1.10
   0  -4 -22    4.50    1.70
   0  -4  22    4.90    3.20
   0   4  22    6.10    1.90
   0  -4  22    4.70    1.60
   0  -4  22    2.60    2.20
   0  -4  22    3.90    2.40
   0   4 -22    3.40    1.60
  -1  -4 -22    8.50    1.50
   1   4 -22    6.20    1.30
  -1   4  22    7.80    2.00
   1  -4  22   11.80    3.30
   1  -4  22    8.70    3.00
   1  -4  22    9.20    1.80
  -1  -4  22    6.80    2.20
   1   4  22   10.40    2.20
   1  -4 -22    8.10    1.60
  -1   4 -22    8.40    1.60
  -1  -4  22   11.40    2.50
  -1  -4  22    6.90    2.20
  -1  -4  22   11.20    3.10
   2   4 -22    4.10    1.40
   2  -4  22    1.60    2.70
   2  -4  22    1.80    1.90
   2  -4  22    0.70    1.70
   2  -4  22    2.80    2.40
  -2  -4 -22    1.50    1.00
  -2   4  22    2.80    1.40
   2  -4 -22    4.70    1.30
  -2  -4  22    2.60    2.20
  -2   4 -22    0.80    1.20
  -2  -4  22    2.30    1.70
  -2  -4  22    1.00    1.70
   2   4  22    2.60    1.40
   3  -4  22    6.50    1.70
   3  -4  22    2.20    1.40
   3  -4  22    9.50    1.90
   3  -4  22    6.30    2.80
  -3   4  22    5.70    1.30
  -3  -4  22    7.30    1.70
   3   4  22    3.50    1.30
   3  -4 -22    8.40    1.30
  -3  -4  22    5.40    1.90
  -3  -4  22    9.80    2.30
  -3   4 -22    7.50    1.50
   4  -4  22    1.70    0.90
   4  -4  22    0.40    1.10
   4  -4  22   -0.50    0.90
  -4   4  22    0.60    0.60
  -4  -4  22    1.10    1.00
  -4   4 -22   -0.20    0.90
   4   4  22    1.10    1.00
   4   4  22    0.70    0.80
  -4  -4  22    1.10    1.20
  -4  -4  22    0.20    1.40
   0  -5  22    1.40    1.70
   0   5  22    1.40    1.30
   0  -5  22    1.50    1.30
   0  -5  22    0.80    2.50
   0  -5  22   -0.40    1.60
   1  -5  22    6.00    2.00
   1  -5  22   12.60    3.10
  -1   5  22    6.90    1.50
   1  -5  22   17.20    2.80
  -1   5 -22    7.60    2.70
   1   5  22    7.70    1.50
  -1  -5  22    7.10    1.70
  -1  -5  22   12.70    3.10
  -1  -5  22   13.60    2.50
  -1  -5  22   12.70    2.30
   2  -5  22    3.20    3.20
   2  -5  22    1.20    1.50
   2  -5  22    2.00    1.80
  -2   5  22    1.60    1.30
   2  -5  22   -2.40    2.70
  -2   5 -22    0.80    1.00
  -2  -5  22   -0.10    1.30
  -2  -5  22    1.10    1.30
   2   5  22    2.30    1.10
  -2  -5  22    0.70    2.10
   3  -5  22    1.60    2.40
  -3   5  22    3.00    1.10
   3  -5  22   -0.30    1.50
   3  -5  22    2.30    1.50
   3   5  22    3.10    1.20
  -3   5 -22    3.00    0.90
  -3  -5  22    6.10    2.00
  -3  -5  22    1.30    1.20
  -3  -5  22    1.70    1.50
   0  -6  22    2.70    2.40
   0  -6  22    1.30    1.50
   0   6  22    1.80    1.10
   0  -6  22    2.10    2.00
  -1   6  22    1.90    1.20
   1  -6  22    2.40    2.60
   1  -6  22    3.80    2.20
   1  -6  22    1.80    2.20
  -1  -6  22    0.50    1.30
  -1  -6  22    3.60    2.60
  -1  -6  22    1.60    1.70
   1   6  22    0.60    1.10
   2  -6  22    0.60    1.20
  -2   6  22    1.00    0.80
   2  -6  22   -0.90    1.00
   2  -6  22    2.40    2.70
  -2  -6  22    0.50    1.10
  -2  -6  22    0.70    1.10
   2   6  22    1.00    0.80
  -2  -6  22    2.00    1.80
   0   0  23   -0.10    1.90
   0   0 -23    1.40    1.50
   0   0  23    0.70    1.40
   0   0  23   -0.70    1.80
   0   0  23    0.40    1.30
  -1   0  23    1.50    1.60
   1   0  23    1.80    1.90
  -1   0 -23    2.90    1.60
  -1   0  23    2.40    1.50
   1   0  23    4.60    2.20
   1   0  23    4.50    1.60
  -1   0  23    4.70    2.00
   1   0 -23    3.90    1.70
   1   0  23    3.90    1.00
  -2   0 -23    3.30    1.70
   2   0  23    0.60    2.10
  -2   0  23    1.20    1.70
   2   0 -23    4.60    1.90
   2   0  23   -0.30    1.50
   2   0  23    1.30    0.90
  -2   0  23    1.60    1.40
  -2   0  23    1.00    1.60
  -2   0  23    3.80    1.70
  -3   0  23   11.70    1.70
  -3   0 -23   15.30    2.10
  -3   0  23   15.40    2.40
   3   0  23   11.50    2.20
  -3   0  23   13.40    2.30
   3   0 -23   13.80    2.10
  -4   0  23   -0.10    0.90
   4   0 -23    0.30    1.10
  -4   0 -23    1.40    1.00
   4   0  23    1.40    1.20
  -4   0  23   -0.30    0.80
   4   0  23    4.40    1.70
   0   1  23    3.90    1.50
   0  -1  23    1.30    2.30
   0  -1  23    1.10    1.50
   0  -1  23    2.20    1.60
   0   1 -23    2.30    2.00
   0  -1 -23    3.40    1.60
   0   1  23    2.90    1.50
   0  -1  23    2.20    2.00
  -1   1  23   16.00    2.90
  -1   1  23   18.60    1.90
  -1  -1 -23   15.90    2.40
   1  -1  23   19.60    2.50
   1  -1  23   13.50    3.00
  -1   1  23   14.50    2.00
   1  -1  23   20.30    3.20
  -1   1  23   17.90    2.90
   1   1  23   19.10    2.50
  -1  -1  23   15.60    2.80
  -1   1 -23   19.40    3.00
  -1  -1  23   17.90    2.60
  -1  -1  23   19.80    3.60
   1  -1 -23   21.00    2.90
  -1  -1  23   13.60    2.70
   1   1  23   17.90    2.50
   2  -1  23    8.80    2.30
  -2   1  23    7.40    1.60
   2   1 -23   12.30    2.10
   2  -1  23    7.60    2.40
  -2  -1 -23   10.80    2.10
  -2   1  23    7.80    2.00
  -2   1  23    7.10    2.20
   2  -1  23   10.20    2.50
   2   1  23   11.90    1.80
  -2   1 -23   10.70    2.10
  -2  -1  23   11.10    1.90
  -2  -1  23   10.40    2.40
   2   1  23    9.40    2.40
  -2  -1  23   10.60    2.30
  -2  -1  23   13.50    2.60
   2  -1 -23   14.40    2.80
   3   1 -23    1.40    1.20
   3  -1  23    1.30    1.40
  -3  -1 -23    1.00    1.20
  -3   1  23    1.60    1.30
   3  -1  23    3.20    1.80
   3  -1  23    1.50    1.60
  -3   1  23    2.20    1.00
   3  -1 -23   -0.50    1.30
  -3  -1  23    1.40    1.50
   3   1  23    1.10    1.20
  -3  -1  23    2.10    1.40
   3   1  23   -0.40    1.00
  -3  -1  23   -0.80    1.50
  -3   1 -23    0.90    1.20
  -4  -1 -23    0.20    0.90
   4  -1  23   -1.80    1.40
   4  -1  23    0.60    0.90
   4   1 -23   -1.40    1.10
  -4  -1  23   -1.40    0.90
  -4   1 -23   -1.90    1.90
  -4  -1  23   -0.70    1.00
   4   1  23    1.10    0.80
   4   1  23    1.30    0.80
  -4   1 -23    0.30    1.00
   4  -1 -23   -0.10    1.00
   0  -2  23    0.50    1.90
   0  -2 -23    0.50    1.30
   0   2 -23   -2.00    1.20
   0  -2  23   -0.40    2.70
   0  -2  23    1.20    2.00
   0  -2  23   -1.20    1.70
   0   2  23   -0.40    1.10
  -1   2  23    4.00    1.40
  -1  -2 -23    6.60    1.90
   1  -2  23    2.00    1.90
   1  -2  23    4.70    2.90
   1   2 -23    4.70    1.60
   1  -2  23    6.20    2.00
   1  -2  23    5.50    1.80
  -1  -2  23    5.10    2.10
  -1  -2  23    5.60    2.00
  -1   2 -23    5.30    1.60
   1   2  23    5.90    1.80
  -1  -2  23    4.30    3.00
  -1  -2  23    4.30    2.20
   1  -2 -23    5.10    1.90
  -2   2  23   19.40    2.10
   2  -2  23   12.80    2.70
  -2  -2 -23   25.20    2.60
   2  -2  23   20.90    2.80
   2   2 -23   19.20    2.40
  -2   2  23   16.70    2.40
   2  -2  23   28.10    3.50
  -2   2 -23   21.90    2.60
   2   2  23   28.50    3.40
  -2  -2  23   22.20    4.60
  -2  -2  23   34.10    3.20
  -2  -2  23   25.80    3.30
   2  -2 -23   25.00    2.80
  -2  -2  23   27.80    3.40
   3  -2  23    2.00    1.70
   3  -2  23    3.50    1.70
   3   2 -23    3.10    1.40
  -3  -2 -23    3.80    1.20
   3  -2  23    1.70    1.40
   3  -2  23    2.70    1.30
   3  -2 -23    1.50    1.20
  -3   2 -23    3.40    1.40
   3   2  23    2.10    1.50
   3   2  23    2.30    1.50
  -3  -2  23    3.00    1.40
  -3  -2  23    1.60    1.70
  -3  -2  23    1.90    1.50
   4   2 -23    0.10    0.90
   4  -2  23   -1.00    0.80
   4  -2  23    0.30    1.50
   4   2  23    0.00    0.60
   4  -2 -23    1.50    1.10
  -4  -2  23    0.70    1.00
  -4   2 -23   -0.20    1.20
  -4   2 -23   -2.40    1.60
   4   2  23   -0.50    0.80
  -4  -2  23    0.90    1.00
  -4  -2  23   -0.20    1.20
   0  -3  23   25.40    3.10
   0  -3  23   22.80    4.30
   0  -3 -23   24.50    2.90
   0  -3  23   20.80    3.40
   0  -3  23   26.10    2.90
   0   3  23   24.20    2.80
   0   3 -23   24.00    2.40
  -1   3  23    1.50    1.20
  -1  -3 -23    1.90    1.30
   1  -3  23    0.50    1.70
   1  -3  23    2.90    2.00
   1  -3  23    3.30    2.60
   1   3 -23   -1.40    1.00
  -1  -3  23    1.30    1.60
  -1  -3  23    0.30    2.60
  -1   3 -23    1.70    1.20
  -1  -3  23    0.70    1.50
   1  -3 -23    0.60    1.20
   1   3  23    1.20    1.20
  -1  -3  23    1.90    1.50
   2  -3  23   21.00    2.90
   2  -3  23   17.30    2.80
  -2  -3 -23   20.30    2.20
   2   3 -23   17.00    2.10
  -2   3  23   15.70    2.00
   2  -3  23   25.20    3.20
  -2   3  23   19.20    2.10
  -2   3 -23   19.50    2.40
   2  -3 -23   20.30    2.40
   2   3  23   23.10    2.50
  -2  -3  23   19.80    2.50
  -2  -3  23   22.90    3.00
  -2  -3  23   17.90    2.80
  -3   3  23    0.90    0.90
   3  -3  23    0.20    1.60
   3  -3  23    1.00    1.40
   3  -3  23   -1.20    2.30
   3   3 -23    1.50    1.20
   3  -3  23   -0.20    1.30
  -3  -3  23    2.70    1.40
   3  -3 -23    1.20    1.30
   3   3  23    1.60    0.90
  -3  -3  23    1.70    1.30
  -3  -3  23   -1.00    1.50
   3   3  23    0.30    1.20
  -3   3 -23    1.30    1.10
   4  -3  23    3.90    1.30
  -4   3 -23    7.60    1.10
  -4  -3  23    5.30    1.30
   4   3  23    5.40    1.00
  -4  -3  23    5.00    1.50
  -4  -3  23    4.50    1.20
   0  -4  23   -0.50    1.60
   0  -4 -23    1.90    0.90
   0  -4  23    1.20    1.10
   0  -4  23    0.40    1.50
   0   4 -23    0.10    1.30
   0   4  23    1.60    1.10
   0  -4  23    2.10    2.70
  -1  -4 -23    5.40    1.20
   1  -4  23    6.40    1.90
  -1   4  23    5.40    1.30
   1  -4  23    8.80    2.40
   1   4 -23    6.30    2.00
   1  -4  23    8.10    2.90
   1   4  23    7.70    1.50
  -1   4 -23    7.20    1.50
   1  -4 -23    7.30    1.30
  -1  -4  23    7.00    1.90
  -1  -4  23    5.20    1.50
  -1  -4  23   10.50    3.00
  -1  -4  23    3.90    1.80
   2  -4  23    8.50    2.10
  -2   4  23    7.30    1.30
   2  -4  23   10.70    2.90
   2  -4  23    7.60    2.10
  -2   4 -23    7.00    1.20
  -2  -4  23    7.40    2.40
   2  -4 -23    7.40    1.20
  -2  -4  23    8.40    1.70
   2   4  23    6.30    1.40
  -2  -4  23    8.30    1.70
   3  -4  23    3.00    1.50
  -3   4  23    5.40    1.00
   3  -4  23    4.30    1.50
  -3  -4  23    4.80    1.60
  -3  -4  23    5.50    1.60
  -3  -4  23    3.80    2.00
  -3   4 -23    6.40    1.10
   3   4  23    4.20    1.40
   3   4  23    6.10    1.30
   0   5  23    0.90    0.80
   0  -5  23   -0.30    1.80
   0  -5  23    1.80    1.50
   0  -5  23    1.70    2.50
  -1   5  23    1.00    0.90
   1  -5  23    1.40    2.00
   1  -5  23    3.80    2.50
   1  -5  23    3.20    1.50
  -1  -5  23    3.20    2.50
  -1  -5  23    3.30    1.60
  -1  -5  23    3.00    1.00
   1   5  23    3.10    1.20
   2  -5  23    0.10    1.10
  -2   5  23    0.10    0.80
   2  -5  23    1.00    2.60
   2  -5  23    0.30    1.30
  -2  -5  23    0.90    1.10
  -2  -5  23    1.30    1.20
  -2  -5  23   -1.00    2.00
   2   5  23   -0.20    0.80
   0  -6  23    0.40    2.00
   0   6  23    0.60    0.80
   0  -6  23    2.00    2.10
   0   0  24    2.40    1.40
   0   0 -24   -0.40    1.20
   0   0  24   -0.60    1.40
  -1   0  24   17.90    2.80
  -1   0  24   12.90    1.60
   1   0  24   16.60    2.30
  -1   0 -24   17.40    2.40
  -1   0  24   12.80    2.10
   1   0  24   12.00    2.50
   1   0 -24   17.50    2.30
  -1   0  24   11.30    2.30
   2   0  24    6.90    2.00
  -2   0  24    3.50    1.40
  -2   0 -24    4.00    1.40
   2   0  24    4.00    1.40
   2   0 -24    4.70    1.40
  -2   0  24    3.30    1.40
  -2   0  24    4.80    1.30
  -3   0  24    2.10    1.10
  -3   0 -24    2.10    1.10
  -3   0  24    0.00    1.20
   3   0 -24    2.00    1.10
   3   0  24    0.60    1.00
   4   0 -24    0.90    0.80
   0  -1  24   12.60    1.80
   0  -1 -24   11.30    1.90
   0  -1  24   10.90    2.50
   0   1 -24   11.50    1.90
   0  -1  24    9.00    2.30
   0  -1  24   12.80    2.30
   0   1  24    7.60    1.30
   0   1  24    7.60    2.10
   1  -1  24    3.70    1.50
  -1   1  24    4.90    1.80
   1  -1  24    6.70    1.90
  -1  -1 -24    6.80    1.50
   1  -1  24    3.80    1.70
   1   1 -24    7.40    1.60
  -1  -1  24    7.60    2.20
  -1  -1  24    8.50    1.60
  -1   1 -24    6.50    1.60
   1   1  24    6.10    2.00
   1  -1 -24    6.70    1.70
  -1  -1  24    4.70    1.60
  -1  -1  24    5.30    1.60
   1   1  24    6.10    1.30
   2   1 -24    1.50    1.10
   2  -1  24    1.00    1.30
  -2  -1 -24    0.50    1.10
   2  -1  24    0.70    1.30
  -2  -1  24   -0.20    1.30
  -2  -1  24   -0.20    1.90
   2   1  24   -0.90    1.30
  -2   1 -24    0.80    1.20
   2  -1 -24    0.10    1.10
  -2  -1  24    3.00    1.10
   2   1  24   -1.10    0.90
   3   1 -24    7.20    1.60
  -3  -1 -24   10.30    1.40
   3  -1  24    5.00    1.40
  -3   1 -24    8.40    1.50
   3  -1 -24    9.30    1.50
  -3  -1  24    8.60    1.40
  -3  -1  24    5.50    1.50
   3   1  24    5.40    1.40
   0  -2  24    2.70    1.90
   0  -2  24    2.50    2.30
   0   2 -24    5.60    1.30
   0  -2 -24    3.30    1.40
   0  -2  24    2.50    1.50
   0  -2  24   -0.30    1.10
   0   2  24    4.50    1.10
   1  -2  24    9.40    2.20
   1   2 -24    9.80    1.50
  -1  -2 -24    8.40    1.50
  -1   2  24    9.40    1.30
  -1   2  24    8.70    1.90
   1  -2  24   10.60    2.10
   1  -2  24   12.10    2.60
   1   2  24    8.00    1.80
   1   2  24    7.40    1.40
  -1  -2  24    9.90    2.70
  -1   2 -24    8.80    1.60
  -1  -2  24    4.70    1.80
  -1  -2  24    4.80    1.70
   1  -2 -24    9.10    1.60
  -1  -2  24   10.00    1.80
   2  -2  24   16.80    2.10
   2  -2  24   22.20    2.70
   2   2 -24   15.90    2.10
  -2  -2 -24   16.10    2.10
   2   2  24   16.50    1.70
  -2  -2  24   15.00    2.20
   2  -2 -24   19.30    2.10
  -2   2 -24   17.70    2.30
  -2  -2  24   21.00    2.70
  -2  -2  24   20.20    2.30
   3   2 -24    6.20    1.20
  -3  -2 -24    7.80    1.10
   3  -2  24    5.50    1.80
  -3   2 -24    8.00    1.50
  -3  -2  24    6.90    1.60
  -3  -2  24    6.40    1.40
   3   2  24    2.50    1.20
  -3  -2  24    8.30    1.50
   3  -2 -24    7.30    1.50
   3   2  24    4.50    1.00
   0   3  24   17.40    1.90
   0  -3  24   11.50    2.20
   0  -3  24   17.70    3.20
   0   3 -24   13.10    1.90
   0  -3  24   19.90    2.40
   0  -3  24   12.20    2.00
   1  -3  24   16.30    2.60
  -1   3  24   11.90    1.50
  -1  -3 -24   16.80    1.80
   1  -3  24   11.60    2.40
   1  -3  24   17.20    2.80
  -1   3  24   11.30    2.00
   1   3 -24   14.90    1.80
  -1  -3  24   11.40    1.90
  -1   3 -24   16.10    1.90
  -1  -3  24   11.30    2.00
   1   3  24   11.40    1.90
  -1  -3  24   12.80    2.80
   1  -3 -24   13.00    1.80
  -1  -3  24   12.70    1.90
   2  -3  24    6.40    1.60
   2  -3  24    5.40    2.00
   2  -3  24    1.40    1.30
  -2   3  24    3.80    0.80
  -2  -3 -24    6.70    1.70
   2   3 -24    2.10    1.40
  -2   3 -24    3.70    1.20
   2   3  24    3.30    1.30
  -2  -3  24    2.00    1.20
   2   3  24    4.60    1.50
  -2  -3  24    5.10    2.30
  -2  -3  24    2.60    1.30
   3  -3  24    1.10    1.10
  -3  -3  24    2.20    1.40
   3   3  24    1.30    0.80
  -3  -3  24    2.10    1.10
  -3  -3  24    1.20    1.00
  -3   3 -24    3.80    1.10
   3   3  24    0.90    0.90
   0  -4  24   11.50    2.00
   0  -4  24   16.30    2.30
   0  -4  24   18.70    2.90
   0   4  24   15.10    1.70
   1  -4  24    1.00    2.00
   1  -4  24    1.90    1.70
  -1   4  24    1.30    1.10
   1  -4  24    0.00    1.70
   1   4  24    0.60    1.00
  -1  -4  24    1.80    2.50
  -1   4 -24   -1.00    1.10
  -1  -4  24    1.30    1.50
  -1  -4  24    1.80    1.10
   2  -4  24    1.00    1.30
   2  -4  24   -1.20    2.00
  -2   4  24    0.60    0.60
   2  -4  24    0.90    1.10
   2   4  24    0.70    0.90
  -2  -4  24   -1.00    0.70
  -2   4 -24    1.40    0.90
  -2  -4  24    0.40    1.10
   2   4  24    0.20    0.70
  -2  -4  24    0.70    1.80
   0   5  24    1.40    0.70
   0  -5  24    1.60    1.60
   0  -5  24    0.30    1.80
   0   0  25    1.70    0.90
   0   0  25    0.00    1.30
   0   0 -25    1.00    1.00
   1   0 -25   -0.70    0.90
  -1   0 -25   -0.60    1.00
  -1   0  25   -0.30    1.20
   1   0  25   -0.10    1.30
   1   0  25   -0.80    0.70
   2   0  25   -1.10    1.00
   2   0 -25    0.50    1.00
  -2   0 -25    0.30    1.00
   3   0  25    1.40    1.00
   3   0 -25    6.30    1.10
   0   1  25    1.00    1.30
   0  -1  25    0.60    1.30
   0   1 -25    0.10    1.00
   0  -1 -25    0.70    1.00
   0  -1  25   -1.40    1.00
   1  -1  25    2.80    1.30
   1  -1  25    2.90    1.40
  -1   1  25    1.90    1.20
   1   1 -25    2.70    1.10
  -1  -1 -25    3.50    1.20
  -1  -1  25    2.90    1.20
  -1  -1  25    2.90    1.30
  -1  -1  25    4.40    1.50
  -1  -1  25    4.40    1.30
   1   1  25    3.00    1.40
   1  -1 -25    5.10    1.20
  -1   1 -25    5.20    1.30
  -2  -1 -25    8.00    1.50
   2   1 -25    8.20    1.30
   2  -1  25    4.20    1.40
  -2  -1  25    6.40    1.40
   2  -1 -25    8.90    1.40
   2   1  25    7.00    1.70
  -2  -1  25    4.50    1.40
   0  -2  25   -0.90    1.60
   0  -2  25   -0.90    1.20
   0   2 -25   -0.20    0.90
   0   2  25   -0.10    1.20
   0  -2 -25   -0.20    0.90
   0  -2  25   -0.40    1.10
  -1   2  25   15.00    2.00
  -1  -2 -25   20.40    2.30
   1  -2  25   18.50    2.50
   1   2 -25   19.70    1.80
  -1  -2  25   18.40    2.10
   1  -2 -25   21.90    2.00
  -1  -2  25   21.50    2.80
  -1  -2  25   16.10    1.90
  -1   2 -25   18.00    2.00
   1   2  25   12.80    2.10
  -2  -2 -25    1.40    0.80
   2   2 -25    4.40    1.00
   2  -2  25    4.20    1.40
   2  -2  25    2.10    1.10
   2  -2 -25    3.00    0.90
   2   2  25    2.60    1.20
  -2  -2  25    3.20    1.10
  -2  -2  25    2.20    1.30
  -2  -2  25    6.30    1.20
  -2   2 -25    3.30    1.00
   0   3 -25   -2.20    1.10
   0  -3 -25    1.00    0.80
   0   3  25   -2.20    0.90
   0  -3  25   -0.50    1.60
   0  -3  25   -0.50    1.40
   0  -3  25    1.50    1.30
   1  -3  25    0.00    1.10
   1  -3  25    0.60    1.60
   1  -3  25   -3.10    1.30
  -1  -3  25    1.20    1.10
  -1  -3  25   -1.60    1.40
   1  -3 -25   -1.00    0.70
   1   3  25    0.10    1.00
  -1   3 -25   -0.90    0.80
  -1  -3  25   -1.20    0.90
   0   0  26   28.40    2.50
   0   0 -26   32.50    2.40
  -1   0 -26   19.10    1.80
   1   0 -26   18.40    1.70
   1   0  26   14.50    1.80
   0   1 -26   16.40    1.70
   0  -1 -26   14.90    1.60
   0  -1  26   10.20    1.80
   0   1  26   11.10    1.70
   1   1 -26    0.80    0.70
  -1  -1 -26    1.60    0.80
   1  -1  26    0.20    1.00
  -1   1 -26    1.10    0.70
   1   1  26    1.60    1.00
   1  -1 -26    0.10    0.70
   0   0   0    0.00    0.00

_computing_structure_solution     'SHELXT 2014/5 (Sheldrick, 2014)'
;
_shelx_hkl_checksum   86996

