
data_lm1AAD910
_audit_block_doi                 10.5517/ccdc.csd.cc2j6bsw
_database_code_depnum_ccdc_archive 'CCDC 2329798'
loop_
_citation_id
_citation_doi
_citation_year
1 10.1002/anie.202408258 2024
loop_
_audit_author_name
_audit_author_address
'Guillermo Zaragoza'
;Universidade de Santiago de Compostela
Spain
;
_audit_update_record             
;
2024-01-30 deposited with the CCDC.	2024-12-03 downloaded from the CCDC.
;

_audit_creation_date             2022-04-04T14:13:36-00:00
_audit_creation_method           'WinGX routine CIF_UPDATE'
_audit_conform_dict_name         cif_core.dic
_audit_conform_dict_version      2.4.5
_audit_conform_dict_location     ftp://ftp.iucr.org/pub/cif_core.dic

#----------------------------------------------------------------------------#
#                   CHEMICAL INFORMATION                                     #
#----------------------------------------------------------------------------#

_chemical_formula_moiety         'C21 H28 N2 O1'
_chemical_formula_sum            'C21 H28 N2 O'
_chemical_formula_weight         324.45

#----------------------------------------------------------------------------#
#                   UNIT CELL INFORMATION                                    #
#----------------------------------------------------------------------------#

_symmetry_cell_setting           monoclinic
_symmetry_space_group_name_H-M   'P 21/c'
_symmetry_space_group_name_Hall  '-P 2ybc'
_symmetry_Int_Tables_number      14
loop_
_symmetry_equiv_pos_as_xyz
'x, y, z'
'-x, y+1/2, -z+1/2'
'-x, -y, -z'
'x, -y-1/2, z-1/2'

_cell_length_a                   10.1331(6)
_cell_length_b                   15.8012(8)
_cell_length_c                   12.2745(8)
_cell_angle_alpha                90
_cell_angle_beta                 110.842(2)
_cell_angle_gamma                90
_cell_volume                     1836.73(19)
_cell_formula_units_Z            4
_cell_measurement_temperature    100(2)
_cell_measurement_reflns_used    5002
_cell_measurement_theta_min      2.50
_cell_measurement_theta_max      27.42
_cell_measurement_wavelength     0.71073

#----------------------------------------------------------------------------#
#                   CRYSTAL INFORMATION                                      #
#----------------------------------------------------------------------------#

_exptl_crystal_description       plate
_exptl_crystal_colour            Yellow
_exptl_crystal_size_max          0.12
_exptl_crystal_size_mid          0.07
_exptl_crystal_size_min          0.04
_exptl_crystal_density_diffrn    1.173
_exptl_crystal_density_method    'not measured'
_exptl_crystal_F_000             704

#----------------------------------------------------------------------------#
#                   ABSORPTION CORRECTION                                    #
#----------------------------------------------------------------------------#

_exptl_absorpt_coefficient_mu    0.072
_exptl_absorpt_correction_type   multi-scan
_exptl_absorpt_process_details   'BRUKER SADABS-2016/2'
_exptl_absorpt_correction_T_min  0.9462
_exptl_absorpt_correction_T_max  1
_shelx_estimated_absorpt_T_min   0.991
_shelx_estimated_absorpt_T_max   0.997

#----------------------------------------------------------------------------#
#                   DATA COLLECTION                                          #
#----------------------------------------------------------------------------#

_diffrn_ambient_temperature      100(2)
_diffrn_radiation_wavelength     0.71073
_diffrn_radiation_type           MoK\a
_diffrn_radiation_probe          x-ray
_diffrn_radiation_monochromator  'Incoatec multilayer mirror'
_diffrn_source                   'INCOATEC microfocus sealed tube'
_diffrn_source_type              'Incoatec I\mS 3.0'
_diffrn_measurement_device_type  'Bruker D8 VENTURE PHOTON III-14'
_diffrn_measurement_method       'omega and phi'
_diffrn_detector_area_resol_mean 7.3910
_diffrn_standards_number         0
_diffrn_standards_interval_time  .
_diffrn_standards_interval_count .
_diffrn_standards_decay_%        ?
_diffrn_reflns_av_R_equivalents  0.0636
_diffrn_reflns_av_unetI/netI     0.0422
_diffrn_reflns_number            25670
_diffrn_reflns_limit_h_min       -13
_diffrn_reflns_limit_h_max       13
_diffrn_reflns_limit_k_min       -20
_diffrn_reflns_limit_k_max       20
_diffrn_reflns_limit_l_min       -15
_diffrn_reflns_limit_l_max       14
_diffrn_reflns_theta_min         2.507
_diffrn_reflns_theta_max         27.482
_diffrn_reflns_theta_full        25.242
_diffrn_measured_fraction_theta_full 0.999
_diffrn_measured_fraction_theta_max 0.999
_diffrn_reflns_Laue_measured_fraction_full 0.999
_diffrn_reflns_Laue_measured_fraction_max 0.999
_diffrn_reflns_point_group_measured_fraction_full 0.999
_diffrn_reflns_point_group_measured_fraction_max 0.999
_reflns_Friedel_coverage         0
_reflns_number_total             4200
_reflns_number_gt                3134
_reflns_threshold_expression     'I > 2\s(I)'

#----------------------------------------------------------------------------#
#                   COMPUTER PROGRAMS USED                                   #
#----------------------------------------------------------------------------#

_computing_data_collection       'APPEX3v2018.7-2 (BRUKER AXS, 2005)'
_computing_cell_refinement       'APPEX3v2018.7-2 (BRUKER AXS, 2005)'
_computing_data_reduction        'APPEX3v2018.7-2 (BRUKER AXS, 2005)'
_computing_structure_solution    'SHELXT-2018/2 (Sheldrick, 2015)'
_computing_structure_refinement  'SHELXL-2018/3 (Sheldrick, 2018)'
_computing_molecular_graphics    'Ortep for Windows (Farrugia, 2012)'
_computing_publication_material  'WinGX publication routines (Farrugia, 2012)'

#----------------------------------------------------------------------------#
#                   STRUCTURE SOLUTION                                       #
#----------------------------------------------------------------------------#

_atom_sites_solution_primary     dual
_atom_sites_solution_secondary   dual
_atom_sites_solution_hydrogens   mixed

#----------------------------------------------------------------------------#
#                   REFINEMENT INFORMATION                                   #
#----------------------------------------------------------------------------#

_shelx_SHELXL_version_number     2018/3
_refine_ls_structure_factor_coef Fsqd
_refine_ls_matrix_type           full
_refine_ls_weighting_scheme      calc
_refine_ls_weighting_details     
'w=1/[\s^2^(Fo^2^)+(0.0354P)^2^+0.9233P] where P=(Fo^2^+2Fc^2^)/3'
_refine_ls_hydrogen_treatment    mixed
_refine_ls_extinction_method     none
_refine_ls_number_reflns         4200
_refine_ls_number_parameters     231
_refine_ls_number_restraints     0
_refine_ls_number_constraints    0
_refine_ls_R_factor_all          0.0753
_refine_ls_R_factor_gt           0.049
_refine_ls_wR_factor_ref         0.1141
_refine_ls_wR_factor_gt          0.0996
_refine_ls_goodness_of_fit_ref   1.039
_refine_ls_restrained_S_all      1.039
_refine_ls_shift/su_max          0
_refine_ls_shift/su_mean         0
_refine_diff_density_max         0.25
_refine_diff_density_min         -0.208
_refine_diff_density_rms         0.045

#----------------------------------------------------------------------------#
#                   CONSTRAINTS AND RESTRAINTS                               #
#----------------------------------------------------------------------------#


#----------------------------------------------------------------------------#
#                   ATOMIC TYPES, COORDINATES AND THERMAL PARAMETERS         #
#----------------------------------------------------------------------------#

loop_
_atom_type_symbol
_atom_type_description
_atom_type_scat_dispersion_real
_atom_type_scat_dispersion_imag
_atom_type_scat_source
C C 0.0033 0.0016 'International Tables Vol C Tables 4.2.6.8 and 6.1.1.4'
H H 0 0 'International Tables Vol C Tables 4.2.6.8 and 6.1.1.4'
N N 0.0061 0.0033 'International Tables Vol C Tables 4.2.6.8 and 6.1.1.4'
O O 0.0106 0.006 'International Tables Vol C Tables 4.2.6.8 and 6.1.1.4'

loop_
_atom_site_label
_atom_site_type_symbol
_atom_site_fract_x
_atom_site_fract_y
_atom_site_fract_z
_atom_site_U_iso_or_equiv
_atom_site_adp_type
_atom_site_occupancy
_atom_site_site_symmetry_order
_atom_site_calc_flag
_atom_site_refinement_flags_posn
_atom_site_refinement_flags_adp
_atom_site_refinement_flags_occupancy
_atom_site_disorder_assembly
_atom_site_disorder_group
N1 N 0.46191(14) 0.55575(8) 0.33076(11) 0.0205(3) Uani 1 1 d . . . . .
O1 O 0.59144(12) 0.82302(7) 0.32018(9) 0.0253(3) Uani 1 1 d . . . . .
N2 N 0.67763(14) 0.79597(8) 0.51338(11) 0.0216(3) Uani 1 1 d . . . . .
C1 C 0.57432(16) 0.68069(9) 0.37874(13) 0.0191(3) Uani 1 1 d . . . . .
C2 C 0.67448(16) 0.61806(9) 0.37335(13) 0.0194(3) Uani 1 1 d . . . . .
C3 C 0.81841(17) 0.62024(10) 0.38985(14) 0.0228(3) Uani 1 1 d . . . . .
H3 H 0.870157 0.671603 0.410011 0.027 Uiso 1 1 calc R U . . .
C4 C 0.88372(18) 0.54656(10) 0.37634(15) 0.0269(4) Uani 1 1 d . . . . .
H4 H 0.98155 0.547239 0.387957 0.032 Uiso 1 1 calc R U . . .
C5 C 0.80764(18) 0.47031(10) 0.34559(15) 0.0281(4) Uani 1 1 d . . . . .
H5 H 0.855225 0.420652 0.335996 0.034 Uiso 1 1 calc R U . . .
C6 C 0.66585(17) 0.46576(10) 0.32901(14) 0.0248(4) Uani 1 1 d . . . . .
H6 H 0.615002 0.414105 0.308694 0.03 Uiso 1 1 calc R U . . .
C7 C 0.60045(16) 0.54053(9) 0.34344(13) 0.0202(3) Uani 1 1 d . . . . .
C8 C 0.3561(2) 0.49214(12) 0.3281(2) 0.0232(5) Uani 0.898(6) 1 d . . P A 1
H8A H 0.365437 0.476652 0.408623 0.028 Uiso 0.898(6) 1 calc R U P A 1
H8B H 0.370915 0.440516 0.28815 0.028 Uiso 0.898(6) 1 calc R U P A 1
C9 C 0.2092(2) 0.52775(12) 0.2635(3) 0.0263(6) Uani 0.898(6) 1 d . . P A 1
H9A H 0.189646 0.526027 0.178569 0.032 Uiso 0.898(6) 1 calc R U P A 1
H9B H 0.138166 0.491843 0.279639 0.032 Uiso 0.898(6) 1 calc R U P A 1
C8B C 0.344(2) 0.4981(13) 0.281(2) 0.0232(5) Uani 0.102(6) 1 d . . P A 2
H8BA H 0.376325 0.439101 0.301033 0.028 Uiso 0.102(6) 1 calc R U P A 2
H8BB H 0.307894 0.503361 0.194618 0.028 Uiso 0.102(6) 1 calc R U P A 2
C9B C 0.229(2) 0.5189(11) 0.327(2) 0.0263(6) Uani 0.102(6) 1 d . . P A 2
H9BA H 0.261236 0.508231 0.411669 0.032 Uiso 0.102(6) 1 calc R U P A 2
H9BB H 0.144297 0.484032 0.287433 0.032 Uiso 0.102(6) 1 calc R U P A 2
C10 C 0.19511(18) 0.61713(11) 0.29925(16) 0.0276(4) Uani 1 1 d . . . . .
H10 H 0.097(2) 0.6388(12) 0.2846(17) 0.041 Uiso 1 1 d . U . . .
C11 C 0.30385(17) 0.67090(10) 0.33840(14) 0.0217(3) Uani 1 1 d . . . . .
C12 C 0.44557(16) 0.64080(9) 0.35217(13) 0.0192(3) Uani 1 1 d . . . . .
C13 C 0.61248(16) 0.77235(9) 0.40144(13) 0.0191(3) Uani 1 1 d . . . . .
C14 C 0.69451(18) 0.74098(10) 0.61398(14) 0.0259(4) Uani 1 1 d . . . . .
H14A H 0.638102 0.688929 0.586414 0.031 Uiso 1 1 calc R U . . .
H14B H 0.65645 0.770498 0.667596 0.031 Uiso 1 1 calc R U . . .
C15 C 0.84658(19) 0.71636(11) 0.68064(15) 0.0321(4) Uani 1 1 d . . . . .
H15A H 0.85077 0.679831 0.746303 0.048 Uiso 1 1 calc R U . . .
H15B H 0.9028 0.767466 0.710011 0.048 Uiso 1 1 calc R U . . .
H15C H 0.884481 0.685879 0.628684 0.048 Uiso 1 1 calc R U . . .
C16 C 0.72567(18) 0.88416(10) 0.53729(15) 0.0261(4) Uani 1 1 d . . . . .
H16A H 0.736491 0.898427 0.61856 0.031 Uiso 1 1 calc R U . . .
H16B H 0.652852 0.922114 0.4849 0.031 Uiso 1 1 calc R U . . .
C17 C 0.86536(18) 0.89974(11) 0.52018(16) 0.0312(4) Uani 1 1 d . . . . .
H17A H 0.893022 0.959077 0.537419 0.047 Uiso 1 1 calc R U . . .
H17B H 0.854629 0.887129 0.439294 0.047 Uiso 1 1 calc R U . . .
H17C H 0.938295 0.863022 0.572812 0.047 Uiso 1 1 calc R U . . .
C18 C 0.28384(18) 0.76269(10) 0.36338(15) 0.0251(4) Uani 1 1 d . . . . .
H18A H 0.185742 0.779472 0.316956 0.03 Uiso 1 1 calc R U . . .
H18B H 0.347817 0.797737 0.337076 0.03 Uiso 1 1 calc R U . . .
C19 C 0.31195(19) 0.78215(11) 0.49173(16) 0.0307(4) Uani 1 1 d . . . . .
H19 H 0.40215 0.753825 0.53978 0.037 Uiso 1 1 calc R U . . .
C20 C 0.3295(2) 0.87732(12) 0.5132(2) 0.0470(5) Uani 1 1 d . . . . .
H20A H 0.353222 0.888859 0.596414 0.071 Uiso 1 1 calc R U . . .
H20B H 0.241001 0.906072 0.468524 0.071 Uiso 1 1 calc R U . . .
H20C H 0.405371 0.898159 0.488295 0.071 Uiso 1 1 calc R U . . .
C21 C 0.1940(2) 0.74770(12) 0.52882(17) 0.0385(5) Uani 1 1 d . . . . .
H21A H 0.217765 0.757031 0.612581 0.058 Uiso 1 1 calc R U . . .
H21B H 0.182681 0.686932 0.51215 0.058 Uiso 1 1 calc R U . . .
H21C H 0.105512 0.776984 0.485597 0.058 Uiso 1 1 calc R U . . .

loop_
_atom_site_aniso_label
_atom_site_aniso_U_11
_atom_site_aniso_U_22
_atom_site_aniso_U_33
_atom_site_aniso_U_23
_atom_site_aniso_U_13
_atom_site_aniso_U_12
N1 0.0251(7) 0.0149(6) 0.0223(7) -0.0018(5) 0.0094(6) -0.0008(5)
O1 0.0350(6) 0.0198(6) 0.0204(6) 0.0039(4) 0.0088(5) -0.0008(5)
N2 0.0311(7) 0.0157(6) 0.0182(7) -0.0010(5) 0.0090(6) -0.0031(5)
C1 0.0267(8) 0.0169(7) 0.0146(7) 0.0000(6) 0.0083(6) 0.0012(6)
C2 0.0264(8) 0.0173(7) 0.0142(7) 0.0008(6) 0.0066(6) 0.0004(6)
C3 0.0268(8) 0.0209(8) 0.0206(8) 0.0018(6) 0.0082(7) -0.0011(6)
C4 0.0254(8) 0.0280(9) 0.0283(9) 0.0042(7) 0.0107(7) 0.0037(7)
C5 0.0311(9) 0.0224(8) 0.0313(10) 0.0007(7) 0.0117(8) 0.0060(7)
C6 0.0310(9) 0.0167(8) 0.0266(9) -0.0021(6) 0.0100(7) 0.0007(6)
C7 0.0250(8) 0.0197(7) 0.0156(8) 0.0002(6) 0.0066(6) 0.0005(6)
C8 0.0294(10) 0.0179(8) 0.0243(13) -0.0036(9) 0.0121(10) -0.0035(7)
C9 0.0259(9) 0.0244(9) 0.0303(15) -0.0049(9) 0.0122(10) -0.0041(7)
C8B 0.0294(10) 0.0179(8) 0.0243(13) -0.0036(9) 0.0121(10) -0.0035(7)
C9B 0.0259(9) 0.0244(9) 0.0303(15) -0.0049(9) 0.0122(10) -0.0041(7)
C10 0.0272(9) 0.0252(8) 0.0323(10) -0.0018(7) 0.0128(7) 0.0018(7)
C11 0.0273(8) 0.0202(8) 0.0203(8) 0.0002(6) 0.0118(7) 0.0006(6)
C12 0.0267(8) 0.0158(7) 0.0160(8) -0.0011(6) 0.0085(6) -0.0009(6)
C13 0.0228(8) 0.0164(7) 0.0201(8) -0.0001(6) 0.0100(6) 0.0010(6)
C14 0.0369(9) 0.0223(8) 0.0180(8) 0.0002(6) 0.0093(7) -0.0044(7)
C15 0.0399(10) 0.0283(9) 0.0243(9) 0.0042(7) 0.0068(8) 0.0003(8)
C16 0.0366(9) 0.0157(7) 0.0256(9) -0.0047(6) 0.0105(7) -0.0045(7)
C17 0.0348(9) 0.0236(9) 0.0333(10) 0.0012(7) 0.0099(8) -0.0047(7)
C18 0.0288(8) 0.0189(8) 0.0304(9) -0.0002(6) 0.0138(7) 0.0019(6)
C19 0.0334(9) 0.0286(9) 0.0290(10) -0.0075(7) 0.0098(8) 0.0023(7)
C20 0.0588(13) 0.0335(11) 0.0551(14) -0.0189(9) 0.0282(11) -0.0042(9)
C21 0.0516(12) 0.0365(10) 0.0330(11) -0.0029(8) 0.0222(9) 0.0017(9)


#----------------------------------------------------------------------------#
#                   MOLECULAR GEOMETRY                                       #
#----------------------------------------------------------------------------#

_geom_special_details            
;
 All esds (except the esd in the dihedral angle between two l.s. planes)
 are estimated using the full covariance matrix.  The cell esds are taken
 into account individually in the estimation of esds in distances, angles
 and torsion angles; correlations between esds in cell parameters are only
 used when they are defined by crystal symmetry.  An approximate (isotropic)
 treatment of cell esds is used for estimating esds involving l.s. planes.
;
loop_
_geom_bond_atom_site_label_1
_geom_bond_atom_site_label_2
_geom_bond_distance
_geom_bond_site_symmetry_2
_geom_bond_publ_flag
N1 C7 1.378(2) . ?
N1 C12 1.3904(18) . ?
N1 C8B 1.45(2) . ?
N1 C8 1.461(2) . ?
O1 C13 1.2370(18) . ?
N2 C13 1.348(2) . ?
N2 C14 1.469(2) . ?
N2 C16 1.4708(19) . ?
C1 C12 1.380(2) . ?
C1 C2 1.436(2) . ?
C1 C13 1.499(2) . ?
C2 C3 1.400(2) . ?
C2 C7 1.415(2) . ?
C3 C4 1.378(2) . ?
C3 H3 0.95 . ?
C4 C5 1.408(2) . ?
C4 H4 0.95 . ?
C5 C6 1.379(2) . ?
C5 H5 0.95 . ?
C6 C7 1.396(2) . ?
C6 H6 0.95 . ?
C8 C9 1.524(3) . ?
C8 H8A 0.99 . ?
C8 H8B 0.99 . ?
C9 C10 1.501(2) . ?
C9 H9A 0.99 . ?
C9 H9B 0.99 . ?
C8B C9B 1.50(3) . ?
C8B H8BA 0.99 . ?
C8B H8BB 0.99 . ?
C9B C10 1.600(19) . ?
C9B H9BA 0.99 . ?
C9B H9BB 0.99 . ?
C10 C11 1.338(2) . ?
C10 H10 1.01(2) . ?
C11 C12 1.464(2) . ?
C11 C18 1.511(2) . ?
C14 C15 1.516(2) . ?
C14 H14A 0.99 . ?
C14 H14B 0.99 . ?
C15 H15A 0.98 . ?
C15 H15B 0.98 . ?
C15 H15C 0.98 . ?
C16 C17 1.523(2) . ?
C16 H16A 0.99 . ?
C16 H16B 0.99 . ?
C17 H17A 0.98 . ?
C17 H17B 0.98 . ?
C17 H17C 0.98 . ?
C18 C19 1.529(2) . ?
C18 H18A 0.99 . ?
C18 H18B 0.99 . ?
C19 C21 1.523(3) . ?
C19 C20 1.526(2) . ?
C19 H19 1 . ?
C20 H20A 0.98 . ?
C20 H20B 0.98 . ?
C20 H20C 0.98 . ?
C21 H21A 0.98 . ?
C21 H21B 0.98 . ?
C21 H21C 0.98 . ?

loop_
_geom_angle_atom_site_label_1
_geom_angle_atom_site_label_2
_geom_angle_atom_site_label_3
_geom_angle
_geom_angle_site_symmetry_1
_geom_angle_site_symmetry_3
_geom_angle_publ_flag
C7 N1 C12 109.43(12) . . ?
C7 N1 C8B 126.0(8) . . ?
C12 N1 C8B 123.5(9) . . ?
C7 N1 C8 126.32(13) . . ?
C12 N1 C8 122.23(14) . . ?
C13 N2 C14 124.13(13) . . ?
C13 N2 C16 118.23(13) . . ?
C14 N2 C16 117.47(13) . . ?
C12 C1 C2 107.38(13) . . ?
C12 C1 C13 130.16(13) . . ?
C2 C1 C13 122.32(13) . . ?
C3 C2 C7 119.20(14) . . ?
C3 C2 C1 133.91(14) . . ?
C7 C2 C1 106.89(13) . . ?
C4 C3 C2 118.82(15) . . ?
C4 C3 H3 120.6 . . ?
C2 C3 H3 120.6 . . ?
C3 C4 C5 120.98(15) . . ?
C3 C4 H4 119.5 . . ?
C5 C4 H4 119.5 . . ?
C6 C5 C4 121.77(15) . . ?
C6 C5 H5 119.1 . . ?
C4 C5 H5 119.1 . . ?
C5 C6 C7 116.98(15) . . ?
C5 C6 H6 121.5 . . ?
C7 C6 H6 121.5 . . ?
N1 C7 C6 130.10(14) . . ?
N1 C7 C2 107.64(13) . . ?
C6 C7 C2 122.26(14) . . ?
N1 C8 C9 109.33(18) . . ?
N1 C8 H8A 109.8 . . ?
C9 C8 H8A 109.8 . . ?
N1 C8 H8B 109.8 . . ?
C9 C8 H8B 109.8 . . ?
H8A C8 H8B 108.3 . . ?
C10 C9 C8 111.86(18) . . ?
C10 C9 H9A 109.2 . . ?
C8 C9 H9A 109.2 . . ?
C10 C9 H9B 109.2 . . ?
C8 C9 H9B 109.2 . . ?
H9A C9 H9B 107.9 . . ?
N1 C8B C9B 109.5(17) . . ?
N1 C8B H8BA 109.8 . . ?
C9B C8B H8BA 109.8 . . ?
N1 C8B H8BB 109.8 . . ?
C9B C8B H8BB 109.8 . . ?
H8BA C8B H8BB 108.2 . . ?
C8B C9B C10 105.7(16) . . ?
C8B C9B H9BA 110.6 . . ?
C10 C9B H9BA 110.6 . . ?
C8B C9B H9BB 110.6 . . ?
C10 C9B H9BB 110.6 . . ?
H9BA C9B H9BB 108.7 . . ?
C11 C10 C9 123.44(16) . . ?
C11 C10 C9B 116.9(7) . . ?
C11 C10 H10 119.0(11) . . ?
C9 C10 H10 117.2(11) . . ?
C9B C10 H10 119.5(13) . . ?
C10 C11 C12 118.92(14) . . ?
C10 C11 C18 121.98(15) . . ?
C12 C11 C18 119.03(13) . . ?
C1 C12 N1 108.67(13) . . ?
C1 C12 C11 133.23(14) . . ?
N1 C12 C11 118.03(13) . . ?
O1 C13 N2 121.59(14) . . ?
O1 C13 C1 121.09(14) . . ?
N2 C13 C1 117.21(13) . . ?
N2 C14 C15 113.42(14) . . ?
N2 C14 H14A 108.9 . . ?
C15 C14 H14A 108.9 . . ?
N2 C14 H14B 108.9 . . ?
C15 C14 H14B 108.9 . . ?
H14A C14 H14B 107.7 . . ?
C14 C15 H15A 109.5 . . ?
C14 C15 H15B 109.5 . . ?
H15A C15 H15B 109.5 . . ?
C14 C15 H15C 109.5 . . ?
H15A C15 H15C 109.5 . . ?
H15B C15 H15C 109.5 . . ?
N2 C16 C17 112.55(13) . . ?
N2 C16 H16A 109.1 . . ?
C17 C16 H16A 109.1 . . ?
N2 C16 H16B 109.1 . . ?
C17 C16 H16B 109.1 . . ?
H16A C16 H16B 107.8 . . ?
C16 C17 H17A 109.5 . . ?
C16 C17 H17B 109.5 . . ?
H17A C17 H17B 109.5 . . ?
C16 C17 H17C 109.5 . . ?
H17A C17 H17C 109.5 . . ?
H17B C17 H17C 109.5 . . ?
C11 C18 C19 114.38(14) . . ?
C11 C18 H18A 108.7 . . ?
C19 C18 H18A 108.7 . . ?
C11 C18 H18B 108.7 . . ?
C19 C18 H18B 108.7 . . ?
H18A C18 H18B 107.6 . . ?
C21 C19 C20 110.86(15) . . ?
C21 C19 C18 110.96(15) . . ?
C20 C19 C18 110.08(15) . . ?
C21 C19 H19 108.3 . . ?
C20 C19 H19 108.3 . . ?
C18 C19 H19 108.3 . . ?
C19 C20 H20A 109.5 . . ?
C19 C20 H20B 109.5 . . ?
H20A C20 H20B 109.5 . . ?
C19 C20 H20C 109.5 . . ?
H20A C20 H20C 109.5 . . ?
H20B C20 H20C 109.5 . . ?
C19 C21 H21A 109.5 . . ?
C19 C21 H21B 109.5 . . ?
H21A C21 H21B 109.5 . . ?
C19 C21 H21C 109.5 . . ?
H21A C21 H21C 109.5 . . ?
H21B C21 H21C 109.5 . . ?

loop_
_geom_torsion_atom_site_label_1
_geom_torsion_atom_site_label_2
_geom_torsion_atom_site_label_3
_geom_torsion_atom_site_label_4
_geom_torsion
_geom_torsion_site_symmetry_1
_geom_torsion_site_symmetry_2
_geom_torsion_site_symmetry_3
_geom_torsion_site_symmetry_4
_geom_torsion_publ_flag
C12 C1 C2 C3 179.07(17) . . . . ?
C13 C1 C2 C3 3.0(3) . . . . ?
C12 C1 C2 C7 -0.27(17) . . . . ?
C13 C1 C2 C7 -176.36(13) . . . . ?
C7 C2 C3 C4 0.0(2) . . . . ?
C1 C2 C3 C4 -179.24(16) . . . . ?
C2 C3 C4 C5 0.5(2) . . . . ?
C3 C4 C5 C6 -0.7(3) . . . . ?
C4 C5 C6 C7 0.4(3) . . . . ?
C12 N1 C7 C6 -178.85(16) . . . . ?
C8B N1 C7 C6 -10.4(12) . . . . ?
C8 N1 C7 C6 17.2(3) . . . . ?
C12 N1 C7 C2 -0.22(17) . . . . ?
C8B N1 C7 C2 168.3(12) . . . . ?
C8 N1 C7 C2 -164.21(18) . . . . ?
C5 C6 C7 N1 178.65(16) . . . . ?
C5 C6 C7 C2 0.2(2) . . . . ?
C3 C2 C7 N1 -179.16(14) . . . . ?
C1 C2 C7 N1 0.30(17) . . . . ?
C3 C2 C7 C6 -0.4(2) . . . . ?
C1 C2 C7 C6 179.06(14) . . . . ?
C7 N1 C8 C9 -156.13(19) . . . . ?
C12 N1 C8 C9 41.8(3) . . . . ?
N1 C8 C9 C10 -43.8(3) . . . . ?
C7 N1 C8B C9B 155.9(14) . . . . ?
C12 N1 C8B C9B -37(2) . . . . ?
N1 C8B C9B C10 55(2) . . . . ?
C8 C9 C10 C11 27.8(3) . . . . ?
C8B C9B C10 C11 -54(2) . . . . ?
C9 C10 C11 C12 -2.7(3) . . . . ?
C9B C10 C11 C12 28.3(10) . . . . ?
C9 C10 C11 C18 174.40(19) . . . . ?
C9B C10 C11 C18 -154.6(10) . . . . ?
C2 C1 C12 N1 0.14(17) . . . . ?
C13 C1 C12 N1 175.82(15) . . . . ?
C2 C1 C12 C11 -176.78(16) . . . . ?
C13 C1 C12 C11 -1.1(3) . . . . ?
C7 N1 C12 C1 0.05(17) . . . . ?
C8B N1 C12 C1 -168.8(12) . . . . ?
C8 N1 C12 C1 164.81(17) . . . . ?
C7 N1 C12 C11 177.51(13) . . . . ?
C8B N1 C12 C11 8.7(12) . . . . ?
C8 N1 C12 C11 -17.7(2) . . . . ?
C10 C11 C12 C1 172.69(17) . . . . ?
C18 C11 C12 C1 -4.5(3) . . . . ?
C10 C11 C12 N1 -4.0(2) . . . . ?
C18 C11 C12 N1 178.85(14) . . . . ?
C14 N2 C13 O1 174.37(14) . . . . ?
C16 N2 C13 O1 -0.8(2) . . . . ?
C14 N2 C13 C1 -9.3(2) . . . . ?
C16 N2 C13 C1 175.49(13) . . . . ?
C12 C1 C13 O1 -80.8(2) . . . . ?
C2 C1 C13 O1 94.35(18) . . . . ?
C12 C1 C13 N2 102.88(19) . . . . ?
C2 C1 C13 N2 -82.00(18) . . . . ?
C13 N2 C14 C15 112.54(17) . . . . ?
C16 N2 C14 C15 -72.22(18) . . . . ?
C13 N2 C16 C17 -80.44(18) . . . . ?
C14 N2 C16 C17 104.02(17) . . . . ?
C10 C11 C18 C19 97.94(19) . . . . ?
C12 C11 C18 C19 -84.99(18) . . . . ?
C11 C18 C19 C21 -72.64(19) . . . . ?
C11 C18 C19 C20 164.27(15) . . . . ?

loop_
_geom_hbond_atom_site_label_D
_geom_hbond_atom_site_label_H
_geom_hbond_atom_site_label_A
_geom_hbond_distance_DH
_geom_hbond_distance_HA
_geom_hbond_distance_DA
_geom_hbond_angle_DHA
_geom_hbond_site_symmetry_A
_geom_hbond_publ_flag
C6 H6 O1 0.95 2.57 3.441(2) 152.9 2_645 yes
C8^a H8B^a O1 0.99 2.39 3.380(2) 175.4 2_645 yes

_shelx_res_file                  
;
TITL 22MCD012_a.res in P2(1)/c
    shelx.res
    created by SHELXL-2018/3 at 13:58:45 on 04-Apr-2022
CELL  0.71073  10.1331  15.8012  12.2745   90.000  110.842   90.000
ZERR     4.00   0.0006   0.0008   0.0008    0.000    0.002    0.000
LATT   1
SYMM  - X, 1/2 + Y, 1/2 - Z
SFAC  C    H    N    O
UNIT  84 112 8 4
MERG   2
EADP C8 C8B
EADP C9 C9B
EQIV $1 -x+1, y-1/2, -z+1/2
HTAB C6 O1_$1
HTAB C8 O1_$1
FMAP   2
PLAN   10
SIZE     0.040   0.070   0.120
ACTA
BOND   $H
CONF
LIST   4
WPDB   4
L.S.   4
TEMP  -173.15
WGHT    0.035400    0.923300
FVAR       0.21152   0.89754
N1    3    0.461910    0.555754    0.330758    11.00000    0.02511    0.01491 =
         0.02234   -0.00184    0.00939   -0.00077
O1    4    0.591441    0.823023    0.320185    11.00000    0.03498    0.01983 =
         0.02037    0.00385    0.00881   -0.00079
N2    3    0.677626    0.795972    0.513375    11.00000    0.03107    0.01565 =
         0.01816   -0.00104    0.00897   -0.00306
C1    1    0.574320    0.680692    0.378735    11.00000    0.02669    0.01685 =
         0.01464   -0.00002    0.00830    0.00116
C2    1    0.674484    0.618057    0.373351    11.00000    0.02636    0.01728 =
         0.01417    0.00084    0.00662    0.00037
C3    1    0.818413    0.620240    0.389854    11.00000    0.02680    0.02093 =
         0.02056    0.00184    0.00818   -0.00108
AFIX  43
H3    2    0.870157    0.671603    0.410011    11.00000   -1.20000
AFIX   0
C4    1    0.883725    0.546561    0.376343    11.00000    0.02543    0.02796 =
         0.02829    0.00420    0.01066    0.00369
AFIX  43
H4    2    0.981550    0.547239    0.387957    11.00000   -1.20000
AFIX   0
C5    1    0.807645    0.470313    0.345591    11.00000    0.03107    0.02243 =
         0.03134    0.00067    0.01172    0.00603
AFIX  43
H5    2    0.855225    0.420652    0.335996    11.00000   -1.20000
AFIX   0
C6    1    0.665851    0.465762    0.329010    11.00000    0.03102    0.01668 =
         0.02659   -0.00206    0.01000    0.00065
AFIX  43
H6    2    0.615002    0.414105    0.308694    11.00000   -1.20000
AFIX   0
C7    1    0.600455    0.540525    0.343441    11.00000    0.02499    0.01968 =
         0.01558    0.00019    0.00663    0.00049
PART  1
C8    1    0.356120    0.492137    0.328065    21.00000    0.02935    0.01792 =
         0.02428   -0.00358    0.01212   -0.00350
AFIX  23
H8A   2    0.365437    0.476652    0.408623    21.00000   -1.20000
H8B   2    0.370915    0.440516    0.288150    21.00000   -1.20000
AFIX   0
C9    1    0.209166    0.527750    0.263508    21.00000    0.02593    0.02439 =
         0.03032   -0.00489    0.01223   -0.00407
AFIX  23
H9A   2    0.189646    0.526027    0.178569    21.00000   -1.20000
H9B   2    0.138166    0.491843    0.279639    21.00000   -1.20000
PART  2
AFIX   0
C8B   1    0.344328    0.498131    0.280618   -21.00000    0.02935    0.01792 =
         0.02428   -0.00358    0.01212   -0.00350
AFIX  23
H8BA  2    0.376325    0.439101    0.301033   -21.00000   -1.20000
H8BB  2    0.307894    0.503361    0.194618   -21.00000   -1.20000
AFIX   0
C9B   1    0.229182    0.518862    0.326714   -21.00000    0.02593    0.02439 =
         0.03032   -0.00489    0.01223   -0.00407
AFIX  23
H9BA  2    0.261236    0.508231    0.411669   -21.00000   -1.20000
H9BB  2    0.144297    0.484032    0.287433   -21.00000   -1.20000
PART  0
AFIX   0
C10   1    0.195111    0.617130    0.299250    11.00000    0.02723    0.02520 =
         0.03228   -0.00181    0.01278    0.00180
H10   2    0.096509    0.638789    0.284552    11.00000   -1.50000
C11   1    0.303849    0.670903    0.338401    11.00000    0.02729    0.02019 =
         0.02025    0.00020    0.01179    0.00060
C12   1    0.445571    0.640797    0.352173    11.00000    0.02673    0.01575 =
         0.01598   -0.00113    0.00849   -0.00088
C13   1    0.612476    0.772345    0.401442    11.00000    0.02284    0.01638 =
         0.02011   -0.00011    0.01001    0.00104
C14   1    0.694514    0.740982    0.613976    11.00000    0.03693    0.02232 =
         0.01797    0.00022    0.00928   -0.00440
AFIX  23
H14A  2    0.638102    0.688929    0.586414    11.00000   -1.20000
H14B  2    0.656450    0.770498    0.667596    11.00000   -1.20000
AFIX   0
C15   1    0.846581    0.716363    0.680635    11.00000    0.03985    0.02832 =
         0.02427    0.00417    0.00682    0.00033
AFIX 137
H15A  2    0.850770    0.679831    0.746303    11.00000   -1.50000
H15B  2    0.902800    0.767466    0.710011    11.00000   -1.50000
H15C  2    0.884481    0.685879    0.628684    11.00000   -1.50000
AFIX   0
C16   1    0.725674    0.884158    0.537292    11.00000    0.03661    0.01573 =
         0.02561   -0.00471    0.01049   -0.00446
AFIX  23
H16A  2    0.736491    0.898427    0.618560    11.00000   -1.20000
H16B  2    0.652852    0.922114    0.484900    11.00000   -1.20000
AFIX   0
C17   1    0.865356    0.899735    0.520179    11.00000    0.03481    0.02363 =
         0.03332    0.00122    0.00987   -0.00471
AFIX 137
H17A  2    0.893022    0.959077    0.537419    11.00000   -1.50000
H17B  2    0.854629    0.887129    0.439294    11.00000   -1.50000
H17C  2    0.938295    0.863022    0.572812    11.00000   -1.50000
AFIX   0
C18   1    0.283842    0.762693    0.363384    11.00000    0.02880    0.01888 =
         0.03042   -0.00018    0.01382    0.00194
AFIX  23
H18A  2    0.185742    0.779472    0.316956    11.00000   -1.20000
H18B  2    0.347817    0.797737    0.337076    11.00000   -1.20000
AFIX   0
C19   1    0.311950    0.782154    0.491734    11.00000    0.03337    0.02859 =
         0.02896   -0.00750    0.00976    0.00234
AFIX  13
H19   2    0.402150    0.753825    0.539780    11.00000   -1.20000
AFIX   0
C20   1    0.329452    0.877325    0.513158    11.00000    0.05877    0.03352 =
         0.05514   -0.01892    0.02815   -0.00417
AFIX 137
H20A  2    0.353222    0.888859    0.596414    11.00000   -1.50000
H20B  2    0.241001    0.906072    0.468524    11.00000   -1.50000
H20C  2    0.405371    0.898159    0.488295    11.00000   -1.50000
AFIX   0
C21   1    0.193956    0.747703    0.528823    11.00000    0.05163    0.03655 =
         0.03301   -0.00293    0.02215    0.00173
AFIX 137
H21A  2    0.217765    0.757031    0.612581    11.00000   -1.50000
H21B  2    0.182681    0.686932    0.512150    11.00000   -1.50000
H21C  2    0.105512    0.776984    0.485597    11.00000   -1.50000
AFIX   0
HKLF    4  1.0  1.00  0.00  0.00  0.00  1.00  0.00  0.00  0.00  1.00




REM  22MCD012_a.res in P2(1)/c
REM wR2 = 0.1141, GooF = S = 1.039, Restrained GooF = 1.039 for all data
REM R1 = 0.0490 for 3134 Fo > 4sig(Fo) and 0.0753 for all 4200 data
REM 231 parameters refined using 0 restraints

END

WGHT      0.0354      0.9233

REM Highest difference peak  0.250,  deepest hole -0.208,  1-sigma level  0.045
Q1    1   0.6403  0.5762  0.3569  11.00000  0.05    0.25
Q2    1   0.5308  0.5399  0.3494  11.00000  0.05    0.22
Q3    1   0.2612  0.6400  0.3598  11.00000  0.05    0.21
Q4    1   0.1653  0.8791  0.4382  11.00000  0.05    0.21
Q5    1   0.6247  0.5131  0.3094  11.00000  0.05    0.21
Q6    1   0.5854  0.7223  0.3824  11.00000  0.05    0.20
Q7    1   0.6202  0.6563  0.3660  11.00000  0.05    0.20
Q8    1   0.1821  0.7856  0.4445  11.00000  0.05    0.20
Q9    1   0.5150  0.6671  0.3821  11.00000  0.05    0.19
Q10   1   0.3766  0.6568  0.3653  11.00000  0.05    0.18
;
_shelx_res_checksum              99985

_shelx_hkl_file                  
;
  -2   0   0 1000.00   18.35
  -2   0   0  956.89   18.04
  -2   0   0  999.08   18.34
   2   0   0  995.42   18.35
   2   0   0  997.28   18.06
   3   0   0   24.33    0.88
  -3   0   0   25.27    1.13
   3   0   0   25.13    1.12
  -3   0   0   24.97    1.12
  -3   0   0   25.65    0.90
   4   0   0  304.17    6.56
   4   0   0  292.28    5.99
  -4   0   0  295.97    6.50
  -4   0   0  298.73    6.53
  -4   0   0  285.24    5.96
  -5   0   0    1.95    0.50
   5   0   0    1.72    0.35
  -5   0   0    1.45    0.34
   5   0   0    2.05    0.52
   6   0   0   53.31    2.31
   6   0   0   52.56    1.91
  -6   0   0   53.91    2.34
  -6   0   0   55.58    1.86
  -6   0   0   56.72    2.38
  -7   0   0   22.10    1.56
   7   0   0   21.48    1.14
  -7   0   0   22.96    1.18
  -7   0   0   24.59    1.65
   7   0   0   20.81    1.49
   8   0   0   62.16    2.85
  -8   0   0   57.90    3.29
  -8   0   0   60.97    2.16
  -8   0   0   58.19    2.76
  -9   0   0    5.30    1.09
  -9   0   0    4.30    0.98
  -9   0   0    4.47    1.22
   9   0   0    5.50    1.05
 -10   0   0   17.27    1.24
 -10   0   0   16.02    1.71
  10   0   0   15.72    2.03
 -10   0   0   16.69    1.75
 -11   0   0    1.25    0.52
  11   0   0    1.08    0.79
 -11   0   0    1.91    0.86
 -11   0   0    2.95    1.03
 -12   0   0    0.34    0.90
 -12   0   0    0.38    0.77
 -12   0   0    0.67    0.58
   1  -1   0   31.76    0.90
   1  -1   0   32.47    0.91
   1  -1   0   33.58    0.89
   1   1   0   34.45    1.00
   2  -1   0   22.60    0.81
  -2  -1   0   24.35    1.03
   2  -1   0   22.69    0.92
  -2  -1   0   22.17    0.60
   2   1   0   23.44    0.88
  -2   1   0   21.75    0.80
  -2   1   0   21.44    0.89
   2   1   0   21.64    0.61
  -2   1   0   22.86    0.93
  -3  -1   0  226.00    4.54
   3  -1   0  235.22    4.84
  -3  -1   0  233.64    5.03
   3  -1   0  235.51    5.12
  -3  -1   0  234.71    5.02
  -3   1   0  226.16    5.08
  -3   1   0  233.29    5.11
  -3   1   0  224.29    4.81
   3   1   0  234.92    5.05
   3   1   0  233.98    4.55
   4  -1   0    0.25    0.24
  -4  -1   0   -0.04    0.25
  -4  -1   0   -0.15    0.17
   4  -1   0    0.73    0.34
  -4  -1   0   -0.19    0.23
   4   1   0    0.39    0.19
  -4   1   0    0.16    0.29
   4   1   0    0.16    0.29
  -4   1   0    0.06    0.30
  -4   1   0    0.48    0.26
  -5  -1   0   31.75    1.55
  -5  -1   0   32.87    1.16
   5  -1   0   34.86    1.35
  -5  -1   0   29.71    1.54
   5  -1   0   34.00    1.64
   5   1   0   33.73    1.60
  -5   1   0   32.37    1.62
  -5   1   0   33.80    1.35
   5   1   0   32.20    1.15
  -5   1   0   34.75    1.69
  -6  -1   0   -0.29    0.28
   6  -1   0    0.68    0.39
   6  -1   0   -0.31    0.16
  -6  -1   0   -0.09    0.28
  -6  -1   0    0.17    0.21
   6   1   0   -0.06    0.43
   6   1   0    0.11    0.19
  -6   1   0   -0.17    0.22
  -6   1   0    0.01    0.33
  -6   1   0    0.13    0.34
   7  -1   0   27.16    1.60
  -7  -1   0   26.94    1.70
  -7  -1   0   27.20    1.21
   7  -1   0   26.03    1.68
  -7  -1   0   26.68    1.68
  -7   1   0   29.11    1.80
  -7   1   0   25.53    1.34
   7   1   0   24.89    1.62
  -7   1   0   27.63    1.76
  -8  -1   0   20.33    1.63
  -8  -1   0   22.00    1.69
  -8  -1   0   19.68    1.13
   8  -1   0   21.95    1.66
  -8   1   0   24.06    1.78
  -8   1   0   19.56    1.65
   8   1   0   22.41    1.68
  -9  -1   0    0.86    0.59
  -9  -1   0    0.62    0.33
   9  -1   0    0.91    0.53
  -9  -1   0   -0.06    0.50
  -9   1   0    0.71    0.63
   9   1   0    0.91    0.60
  -9   1   0    0.25    0.35
  -9   1   0    0.93    0.64
 -10  -1   0    1.97    0.58
 -10  -1   0    2.52    1.20
  10  -1   0    3.20    0.91
 -10  -1   0    2.41    0.85
 -10   1   0    2.99    0.65
 -10   1   0    1.55    0.85
 -10   1   0    3.80    1.06
  10   1   0    2.59    0.76
 -11  -1   0    2.24    0.90
 -11  -1   0    1.48    0.87
 -11  -1   0    2.17    0.54
  11   1   0    1.56    0.77
 -11   1   0    1.83    0.83
 -11   1   0    2.28    0.61
 -11   1   0    1.21    0.78
 -12  -1   0    2.40    1.09
 -12  -1   0    2.52    0.63
 -12  -1   0    3.09    1.12
 -12   1   0    2.13    0.71
 -12   1   0    3.13    1.03
 -12   1   0    2.94    0.98
   0   2   0  102.95    2.13
   0   2   0  101.30    1.95
   0   2   0  102.74    2.23
   1  -2   0   35.09    1.00
  -1  -2   0   37.32    1.17
  -1  -2   0   35.75    0.87
   1  -2   0   35.41    1.05
   1  -2   0   36.46    1.01
   1   2   0   36.70    0.88
  -1   2   0   36.37    1.01
  -1   2   0   35.49    1.00
   1   2   0   36.20    1.15
   2  -2   0   62.47    1.70
   2  -2   0   64.74    1.77
   2   2   0   62.39    1.63
  -2   2   0   61.92    1.71
   2   2   0   62.35    1.89
  -2   2   0   63.22    1.77
  -2   2   0   61.66    1.74
   3  -2   0   85.32    2.28
   3  -2   0   86.60    2.44
  -3  -2   0   83.44    2.45
  -3   2   0   83.92    2.25
  -3   2   0   83.32    2.41
  -3   2   0   88.62    2.46
   3   2   0   90.96    2.35
  -4  -2   0   -0.11    0.26
   4  -2   0   -0.30    0.18
   4  -2   0   -0.15    0.24
  -4  -2   0    0.49    0.36
  -4   2   0    0.05    0.23
  -4   2   0    0.40    0.36
   4   2   0   -0.06    0.25
   4   2   0   -0.12    0.13
  -4   2   0   -0.27    0.25
  -5  -2   0   15.44    1.07
   5  -2   0   19.08    1.04
  -5  -2   0   16.81    0.72
   5  -2   0   17.71    1.20
  -5  -2   0   16.56    1.12
  -5   2   0   18.42    1.25
  -5   2   0   16.48    1.18
  -5   2   0   16.50    1.01
   5   2   0   17.11    1.12
   5   2   0   16.69    0.71
  -6  -2   0    0.99    0.45
   6  -2   0    1.03    0.36
  -6  -2   0    0.77    0.41
   6  -2   0    0.36    0.32
  -6  -2   0    0.49    0.25
   6   2   0    0.98    0.44
  -6   2   0    0.53    0.34
   6   2   0    0.73    0.25
  -6   2   0    0.61    0.42
  -6   2   0    0.54    0.45
   7  -2   0   42.87    1.83
  -7  -2   0   43.46    1.48
   7  -2   0   45.46    2.27
  -7  -2   0   42.61    2.12
  -7  -2   0   45.83    2.20
  -7   2   0   45.01    2.28
  -7   2   0   46.04    2.31
  -7   2   0   45.37    1.92
   7   2   0   44.80    2.19
  -8  -2   0   15.29    0.90
  -8  -2   0   17.40    1.44
  -8  -2   0   16.24    1.47
   8  -2   0   17.50    1.48
  -8   2   0   14.57    1.15
  -8   2   0   14.79    2.10
   8   2   0   16.22    1.41
  -8   2   0   13.87    1.44
  -9  -2   0   10.81    1.79
   9  -2   0    9.07    1.35
  -9  -2   0    9.07    1.39
  -9  -2   0    8.55    0.72
  -9   2   0   11.01    1.08
  -9   2   0    8.28    1.39
  -9   2   0    6.97    1.23
   9   2   0    7.94    1.25
 -10  -2   0    4.60    0.64
  10  -2   0    4.75    1.05
 -10  -2   0    5.23    1.21
 -10  -2   0    3.56    0.96
 -10   2   0    4.66    1.11
  10   2   0    4.60    1.03
 -10   2   0    5.38    1.13
 -10   2   0    5.16    0.88
 -11  -2   0    4.88    1.20
 -11  -2   0    5.85    1.84
 -11   2   0    3.97    1.09
 -11   2   0    6.30    1.37
  11   2   0    5.04    1.34
 -11   2   0    4.29    0.86
 -12  -2   0    0.45    0.83
 -12  -2   0    0.16    0.84
 -12   2   0   -0.73    0.53
 -12   2   0    0.85    0.89
 -12   2   0    1.24    0.92
  12   2   0    0.30    1.19
   0  -3   0    0.04    0.08
   0  -3   0   -0.19    0.16
   0  -3   0   -0.02    0.14
   0   3   0    0.03    0.10
   0   3   0    0.03    0.16
   0   3   0    0.04    0.09
   0   3   0    0.04    0.15
   0   3   0    0.06    0.10
   1  -3   0    2.32    0.32
  -1  -3   0    3.00    0.43
   1  -3   0    3.12    0.32
   1  -3   0    3.03    0.34
   1  -3   0    3.24    0.39
   1   3   0    3.04    0.25
  -1   3   0    3.73    0.43
   1   3   0    2.96    0.45
  -1   3   0    3.13    0.35
   1   3   0    2.63    0.27
   2  -3   0  114.90    2.77
  -2  -3   0  111.74    2.49
   2  -3   0  111.49    2.73
  -2  -3   0  116.61    3.02
   2   3   0  112.54    2.96
  -2   3   0  110.15    2.76
  -2   3   0  111.83    2.72
   2   3   0  116.09    2.54
  -2   3   0  111.42    2.74
   3  -3   0   27.16    1.23
   3  -3   0   27.28    1.17
  -3   3   0   29.07    1.22
   3   3   0   28.39    1.13
   3   3   0   27.25    1.36
  -3   3   0   29.34    1.28
   4  -3   0   32.42    1.50
   4  -3   0   32.31    1.36
  -4  -3   0   32.01    1.36
   4   3   0   31.39    1.37
  -4   3   0   29.78    1.48
  -4   3   0   30.80    1.47
  -4   3   0   30.41    1.36
   5  -3   0    2.72    0.66
  -5  -3   0    2.36    0.52
   5  -3   0    2.78    0.51
  -5   3   0    2.40    0.58
   5   3   0    3.22    0.58
  -5   3   0    2.92    0.53
  -5   3   0    2.74    0.61
   6  -3   0    4.54    0.76
  -6  -3   0    4.92    0.78
   6  -3   0    5.17    0.71
  -6  -3   0    5.91    0.86
   6   3   0    6.17    0.90
  -6   3   0    3.87    0.77
  -6   3   0    6.56    1.48
  -7  -3   0   13.90    1.22
  -7  -3   0   16.68    1.27
   7  -3   0   15.72    1.13
   7  -3   0   14.98    1.31
  -7   3   0   15.94    2.51
  -7   3   0   15.10    1.15
   7   3   0   12.60    1.26
  -7   3   0   15.05    1.37
  -8  -3   0   14.45    1.29
   8  -3   0    9.68    1.33
  -8  -3   0   12.74    1.32
  -8   3   0   12.18    1.34
   8   3   0   12.47    1.26
  -8   3   0   12.68    1.41
  -8   3   0   13.00    1.16
   9  -3   0   -0.36    0.79
  -9  -3   0   -0.61    0.42
   9   3   0    0.99    0.61
  -9   3   0    0.55    0.61
  -9   3   0    0.35    0.61
  -9   3   0    0.45    0.48
  10  -3   0    0.61    0.58
 -10  -3   0    0.31    0.59
 -10  -3   0    0.15    0.55
 -10   3   0   -0.44    0.59
  10   3   0    0.21    0.50
 -10   3   0   -0.03    0.50
 -10   3   0   -0.21    0.38
 -11  -3   0   -1.16    0.51
 -11  -3   0    0.97    0.73
 -11   3   0    0.57    0.70
 -11   3   0   -0.02    0.40
  11   3   0   -1.31    0.61
 -11   3   0    0.57    0.69
 -12  -3   0   -0.55    1.00
 -12  -3   0    0.40    0.88
 -12   3   0    0.84    0.79
 -12   3   0    1.04    0.78
  12   3   0    0.47    0.98
 -12   3   0    0.52    0.61
   0  -4   0   82.80    2.00
   0  -4   0   78.83    2.17
   0   4   0   78.03    1.66
   0   4   0   81.81    2.01
   0   4   0   76.54    1.65
   0   4   0   79.13    2.14
   0   4   0   80.94    1.79
   1  -4   0    3.05    0.36
   1  -4   0    1.97    0.35
  -1  -4   0    3.06    0.50
   1  -4   0    3.20    0.51
   1   4   0    2.48    0.29
  -1   4   0    3.35    0.50
   1   4   0    2.63    0.48
  -1   4   0    2.63    0.33
  -1   4   0    1.74    0.31
  -1   4   0    2.40    0.35
  -2  -4   0   35.15    1.52
  -2  -4   0   35.01    1.00
  -2  -4   0   34.33    1.00
   2  -4   0   34.09    1.31
   2  -4   0   34.29    1.24
   2   4   0   35.44    1.06
  -2   4   0   33.68    1.25
  -2   4   0   33.63    1.33
  -2   4   0   34.43    1.26
   3  -4   0   24.04    1.20
   3  -4   0   24.10    1.16
  -3  -4   0   24.81    1.05
  -3   4   0   24.24    1.20
  -3   4   0   24.01    1.19
  -3   4   0   23.71    1.18
   3   4   0   26.31    1.37
   4  -4   0    9.22    0.84
   4  -4   0    9.72    0.80
   4   4   0    9.13    0.75
  -4   4   0    7.10    0.80
  -4   4   0    8.67    0.85
  -4   4   0    9.52    0.83
   5  -4   0    1.52    0.48
   5  -4   0    2.43    0.50
  -5  -4   0    2.10    0.49
  -5   4   0    2.33    0.59
   5   4   0    1.78    0.46
  -5   4   0    1.95    0.56
  -5   4   0    2.45    0.69
  -6  -4   0    2.29    0.56
   6  -4   0    2.58    0.64
  -6  -4   0    3.18    0.60
   6  -4   0    2.68    0.58
  -6   4   0    2.15    0.62
  -6   4   0    1.91    0.61
   6   4   0    2.55    0.59
  -6   4   0    2.36    0.58
  -7  -4   0    8.09    0.89
   7  -4   0    6.33    0.99
  -7  -4   0    9.24    1.02
   7  -4   0    7.68    0.86
   7   4   0    6.82    1.01
  -7   4   0    7.75    1.20
  -7   4   0    6.56    1.07
  -7   4   0    7.35    0.96
   8  -4   0    1.61    0.59
  -8  -4   0    2.00    0.62
  -8  -4   0    2.86    0.77
  -8   4   0    0.91    0.58
   8   4   0    2.42    0.67
  -8   4   0    1.75    0.55
  -8   4   0    1.23    0.66
   9  -4   0    0.88    0.53
  -9  -4   0   -0.39    0.41
  -9  -4   0    1.34    0.63
  -9   4   0    0.92    0.59
   9   4   0    0.99    0.49
  -9   4   0    0.83    0.50
  -9   4   0    0.69    0.71
 -10  -4   0    5.77    1.12
  10   4   0    5.34    1.12
 -10   4   0    5.75    1.04
 -10   4   0    4.91    1.18
 -10   4   0    4.61    1.14
 -11  -4   0   -0.97    0.61
 -11  -4   0   -0.22    1.01
  11   4   0    1.73    0.73
 -11   4   0    1.30    0.62
 -11   4   0   -0.05    0.68
 -11   4   0    0.60    0.58
 -12  -4   0    2.69    0.98
 -12  -4   0   -0.20    0.90
 -12   4   0    1.42    0.90
 -12   4   0    1.58    0.60
 -12   4   0    2.04    1.11
   0  -5   0    0.29    0.27
   0  -5   0   -0.20    0.16
   0   5   0   -0.17    0.19
   0   5   0    0.22    0.23
   0   5   0    0.18    0.13
   0   5   0    0.30    0.15
   1  -5   0   37.34    1.12
  -1  -5   0   37.51    1.52
   1  -5   0   38.61    1.47
   1  -5   0   38.63    1.38
   1  -5   0   36.45    1.13
  -1   5   0   37.95    1.16
  -1   5   0   38.89    1.44
  -1   5   0   36.15    1.15
   1   5   0   36.49    1.16
  -1   5   0   37.33    1.38
   1   5   0   37.09    1.49
   2  -5   0    6.18    1.11
   2  -5   0    6.28    0.68
   2  -5   0    6.77    0.66
  -2  -5   0    6.89    0.76
  -2  -5   0    7.04    0.38
  -2  -5   0    6.76    0.38
   2   5   0    6.20    0.40
  -2   5   0    4.95    0.61
  -2   5   0    6.43    0.57
   2   5   0    6.00    0.65
  -2   5   0    5.62    0.56
   3  -5   0   59.91    2.03
  -3  -5   0   56.02    1.60
  -3  -5   0   56.79    1.60
   3  -5   0   58.85    1.94
  -3  -5   0   53.87    2.22
   3   5   0   57.02    1.69
  -3   5   0   51.85    1.90
  -3   5   0   55.36    1.94
  -3   5   0   57.70    2.03
   4  -5   0   44.36    1.83
   4  -5   0   45.77    1.84
  -4  -5   0   42.38    1.53
   4   5   0   45.26    1.64
  -4   5   0   41.66    1.86
  -4   5   0   46.35    1.89
   5  -5   0   17.78    1.16
  -5  -5   0   19.06    1.10
   5  -5   0   18.05    1.24
  -5   5   0   18.07    1.22
   5   5   0   17.79    1.12
  -5   5   0   17.84    1.27
  -5   5   0   17.83    1.28
   6  -5   0    2.23    0.53
  -6  -5   0    2.95    0.60
   6  -5   0    2.15    0.58
  -6   5   0    2.66    0.65
  -6   5   0    2.46    0.61
  -6   5   0    2.07    0.61
   6   5   0    2.36    0.57
  -7  -5   0   14.78    1.22
   7  -5   0   17.01    1.29
   7  -5   0   17.23    1.42
  -7   5   0   16.01    1.31
   7   5   0   15.50    1.27
  -7   5   0   18.49    1.51
  -7   5   0   15.15    1.47
   8  -5   0    3.64    1.29
  -8  -5   0    2.16    0.63
  -8  -5   0    1.83    0.62
  -8   5   0    1.82    0.77
  -8   5   0    0.58    0.51
   8   5   0    1.58    0.60
  -8   5   0    1.51    0.72
  -9  -5   0    2.50    0.71
   9  -5   0    0.73    0.54
  -9  -5   0    0.91    0.64
  -9   5   0    0.63    0.67
  -9   5   0    2.67    0.77
  -9   5   0    1.50    0.68
   9   5   0   -0.52    0.46
 -10  -5   0    1.62    0.72
 -10  -5   0    0.78    0.57
 -10   5   0    0.69    0.52
  10   5   0    0.10    0.62
 -10   5   0    0.90    0.63
 -10   5   0    0.21    0.58
 -11  -5   0    1.28    0.81
 -11  -5   0    0.99    0.73
 -11   5   0    0.98    0.59
  11   5   0    0.54    0.70
 -11   5   0    1.01    0.63
 -11   5   0    0.60    0.69
   0  -6   0   11.90    0.89
   0   6   0    9.78    0.47
   0   6   0    9.76    0.78
   0   6   0   11.37    0.74
   1  -6   0   39.55    1.18
  -1  -6   0   38.66    1.67
   1  -6   0   39.11    1.50
   1  -6   0   39.10    1.20
   1  -6   0   39.20    1.59
  -1   6   0   38.93    1.51
  -1   6   0   39.39    1.56
  -1   6   0   38.70    1.23
   1   6   0   39.80    1.31
   1   6   0   35.71    1.58
  -1   6   0   41.06    1.24
  -2  -6   0   43.53    1.04
   2  -6   0   45.74    1.71
   2  -6   0   44.28    1.49
   2  -6   0   43.05    1.77
  -2  -6   0   42.68    1.88
   2   6   0   44.82    1.29
   2   6   0   42.60    1.83
  -2   6   0   42.12    1.49
   2   6   0   45.43    1.23
  -2   6   0   42.36    1.51
  -2   6   0   42.70    1.70
   3  -6   0    5.33    0.77
  -3  -6   0    4.85    0.43
  -3  -6   0    5.49    0.46
   3  -6   0    5.24    0.81
  -3  -6   0    5.89    0.98
   3  -6   0    4.94    0.81
  -3   6   0    6.14    0.69
   3   6   0    5.88    0.52
  -3   6   0    6.07    0.75
  -3   6   0    7.37    0.94
   4  -6   0    7.08    0.78
  -4  -6   0    8.10    0.63
  -4  -6   0    7.99    0.62
   4  -6   0    6.64    0.74
  -4   6   0    5.91    0.81
  -4   6   0    8.09    1.30
   4   6   0    7.30    0.65
   5  -6   0   18.28    1.23
   5  -6   0   18.25    1.25
  -5  -6   0   17.84    1.02
  -5   6   0   18.36    1.30
   5   6   0   18.36    1.11
  -5   6   0   18.30    1.30
  -5   6   0   17.35    1.24
   6  -6   0    4.98    0.83
  -6  -6   0    6.41    0.85
   6  -6   0    6.65    1.04
  -6   6   0    5.63    0.89
   6   6   0    7.35    0.81
  -6   6   0    5.37    0.92
  -6   6   0    5.68    0.97
  -7  -6   0    0.81    0.43
   7  -6   0    0.51    0.39
   7  -6   0   -0.32    0.34
  -7   6   0    0.62    0.54
  -7   6   0    0.59    0.54
  -7   6   0    1.19    0.61
   7   6   0    1.21    0.48
  -8  -6   0    1.84    0.66
   8  -6   0    1.19    0.57
  -8   6   0    1.27    0.61
   8   6   0    0.96    0.57
  -8   6   0    2.01    0.67
  -8   6   0    0.90    0.66
  -9  -6   0    4.98    0.98
   9   6   0    3.19    0.84
  -9   6   0    4.19    0.88
  -9   6   0    3.75    1.05
  -9   6   0    5.07    1.18
 -10  -6   0   -0.49    0.52
 -10  -6   0    0.76    0.60
 -10   6   0   -1.00    0.57
 -10   6   0   -0.41    0.60
 -10   6   0    1.06    0.61
  10   6   0   -0.18    0.50
 -11  -6   0    0.20    0.76
 -11  -6   0    0.36    0.64
  11   6   0    0.00    0.73
 -11   6   0    0.40    0.65
 -11   6   0   -0.27    0.56
 -11   6   0    2.74    0.98
   0  -7   0    0.47    0.37
   0   7   0    0.13    0.26
   0   7   0    0.18    0.17
   0   7   0    0.46    0.30
   1  -7   0    6.71    0.76
   1  -7   0    7.67    0.52
   1  -7   0    7.24    0.50
  -1  -7   0    7.53    0.84
   1  -7   0    6.90    0.71
  -1   7   0    7.68    0.76
  -1   7   0    7.56    0.75
   1   7   0    7.86    0.99
   1   7   0    7.92    0.63
  -1   7   0    6.96    0.54
  -2  -7   0   19.43    1.60
   2  -7   0   19.17    1.38
   2  -7   0   21.25    1.27
   2  -7   0   17.12    0.91
   2   7   0   20.10    0.86
  -2   7   0   17.25    1.14
  -2   7   0   18.09    0.97
   2   7   0   20.31    0.74
  -2   7   0   17.73    0.97
   3  -7   0  116.30    3.15
   3  -7   0  102.72    4.14
  -3  -7   0  114.90    2.55
   3  -7   0  115.69    3.51
  -3  -7   0  115.32    3.76
   3  -7   0  115.11    3.39
  -3   7   0  113.15    3.19
   3   7   0  120.62    2.80
   3   7   0  116.92    2.57
  -3   7   0  112.79    3.21
  -3   7   0  111.35    3.40
  -4  -7   0   28.43    1.10
   4  -7   0   24.89    1.44
   4  -7   0   25.91    1.55
  -4  -7   0   24.77    1.03
   4  -7   0   26.91    1.40
  -4   7   0   23.99    1.43
  -4   7   0   25.64    1.41
   4   7   0   26.88    1.19
  -4   7   0   25.02    1.42
   5  -7   0    4.12    0.78
  -5  -7   0    3.89    0.58
  -5  -7   0    4.18    0.58
   5  -7   0    4.93    0.78
  -5   7   0    3.90    0.76
   5   7   0    4.61    0.85
  -5   7   0    3.91    0.75
  -5   7   0    3.20    0.62
   6  -7   0    5.71    0.92
  -6  -7   0    5.22    0.72
   6  -7   0    4.66    0.87
  -6   7   0    6.20    1.04
  -6   7   0    6.20    1.05
   6   7   0    8.31    1.02
  -6   7   0    6.10    0.98
  -7  -7   0   31.14    1.66
   7  -7   0   36.42    2.12
   7   7   0   32.40    1.82
  -7   7   0   33.30    2.09
  -7   7   0   35.08    2.02
  -7   7   0   33.75    2.07
  -8  -7   0    6.72    0.99
   8  -7   0    5.90    1.06
  -8  -7   0    4.75    0.88
  -8   7   0    3.50    0.80
  -8   7   0    5.86    1.19
   8   7   0    5.89    0.99
  -8   7   0    5.32    1.06
  -9  -7   0    1.39    0.57
   9   7   0    2.19    0.70
  -9   7   0   -0.47    0.55
  -9   7   0    2.10    0.77
  -9   7   0    0.94    0.56
 -10  -7   0   -0.69    0.50
 -10   7   0    0.81    0.67
 -10   7   0   -0.31    0.50
 -10   7   0    0.26    0.57
  10   7   0    0.64    0.60
 -11  -7   0    1.05    0.75
  11  -7   0    0.65    0.79
 -11   7   0   -0.07    0.56
 -11   7   0   -0.27    0.62
 -11   7   0    0.60    0.61
  11   7   0    0.45    0.71
   0  -8   0   51.82    2.16
   0   8   0   55.00    1.93
   1  -8   0   23.27    0.89
   1  -8   0   23.89    0.87
  -1  -8   0   21.71    1.47
   1  -8   0   21.35    1.35
  -1   8   0   22.76    0.96
  -1   8   0   21.83    0.95
   1   8   0   23.31    1.11
  -1   8   0   22.82    1.27
   2  -8   0  182.70    4.20
   2  -8   0  175.85    5.29
   2  -8   0  180.18    4.12
  -2  -8   0  187.36    5.10
   2  -8   0  184.33    4.68
  -2   8   0  181.74    4.71
  -2   8   0  174.77    4.21
  -2   8   0  176.63    4.25
   2   8   0  186.70    4.10
   3  -8   0    3.00    0.53
   3  -8   0    1.54    0.51
  -3  -8   0    2.18    0.25
   3  -8   0    2.59    0.66
  -3   8   0    2.30    0.51
  -3   8   0    3.37    0.58
   3   8   0    2.30    0.35
  -3   8   0    2.25    0.56
   3   8   0    2.43    0.37
  -4  -8   0    8.16    1.27
   4  -8   0    7.51    0.82
   4  -8   0    7.83    0.78
   4  -8   0    7.49    0.85
   4  -8   0    7.85    1.18
  -4  -8   0    8.52    0.56
  -4  -8   0    6.76    0.52
  -4   8   0    8.58    0.94
  -4   8   0    8.55    0.88
  -4   8   0    7.76    0.85
   4   8   0    8.72    0.68
  -5  -8   0   -0.04    0.21
  -5  -8   0   -0.31    0.20
   5  -8   0   -0.50    0.21
   5  -8   0   -0.42    0.22
   5  -8   0   -0.21    0.19
  -5   8   0   -0.05    0.27
  -5   8   0   -0.31    0.25
   5   8   0   -0.20    0.22
  -5   8   0    0.70    0.40
  -6  -8   0   20.71    1.18
   6  -8   0   20.64    1.52
   6  -8   0   20.85    1.48
  -6  -8   0   22.29    1.22
   6   8   0   19.49    1.27
  -6   8   0   21.00    1.54
  -6   8   0   19.43    1.51
  -6   8   0   22.66    1.63
   7  -8   0    5.45    0.93
  -7  -8   0    7.35    0.91
  -7  -8   0    7.18    0.95
  -7   8   0    8.69    2.01
  -7   8   0    5.87    1.06
  -7   8   0    6.99    1.13
   7   8   0    8.28    0.94
  -8  -8   0    2.84    0.66
  -8   8   0    4.53    1.00
  -8   8   0    4.75    1.00
  -8   8   0    1.63    0.69
   8   8   0    3.41    0.78
  -9  -8   0    1.35    0.61
   9   8   0    1.97    0.69
  -9   8   0    1.03    0.62
  -9   8   0    1.18    0.68
  -9   8   0    1.56    1.15
 -10  -8   0   -0.38    0.47
 -10  -8   0    0.98    0.65
 -10   8   0    0.18    0.50
  10   8   0    0.41    0.93
 -10   8   0   -0.55    0.55
 -10   8   0    0.34    0.52
  11  -8   0    7.14    1.66
 -11  -8   0    6.45    1.25
 -11  -8   0    5.45    1.16
 -11   8   0    7.49    1.39
  11   8   0    7.96    1.55
 -11   8   0    4.59    1.09
 -11   8   0    6.92    1.50
   0  -9   0    0.00    0.31
   0   9   0    0.05    0.24
   1  -9   0   71.03    2.64
  -1  -9   0   65.97    2.65
   1  -9   0   63.64    1.72
   1   9   0   66.85    2.15
  -1   9   0   68.43    2.41
  -1   9   0   63.06    1.85
   2  -9   0    0.10    0.20
   2  -9   0    0.42    0.24
   2  -9   0   -0.12    0.26
   2   9   0   -0.09    0.18
  -2   9   0    0.19    0.26
  -2   9   0    0.60    0.38
  -2   9   0   -0.10    0.21
   3  -9   0    0.71    0.34
  -3  -9   0   -0.02    0.32
   3  -9   0    0.20    0.30
   3  -9   0    1.09    0.55
   3  -9   0    0.34    0.26
  -3   9   0    0.72    0.36
  -3   9   0    1.18    0.40
  -3   9   0    0.46    0.40
   3   9   0    0.12    0.20
   3   9   0    0.48    0.23
   4  -9   0   29.01    1.55
   4  -9   0   28.82    1.77
  -4  -9   0   28.84    1.96
   4  -9   0   30.28    1.73
   4  -9   0   28.62    1.48
  -4  -9   0   29.05    1.09
  -4   9   0   27.21    1.54
   4   9   0   30.75    1.26
  -4   9   0   32.64    1.79
  -4   9   0   30.07    1.60
   5  -9   0    1.24    0.50
   5  -9   0    0.51    0.35
  -5  -9   0    0.87    0.29
  -5  -9   0    0.82    0.28
   5  -9   0    0.57    0.37
   5  -9   0    1.01    0.77
  -5   9   0    0.82    0.44
  -5   9   0    0.16    0.36
  -5   9   0    0.35    0.43
   6  -9   0   -0.08    0.35
   6  -9   0    0.35    0.47
  -6  -9   0   -0.05    0.29
   6  -9   0   -0.29    0.43
  -6  -9   0    0.19    0.29
  -6   9   0   -0.04    0.39
  -6   9   0    1.03    0.55
   6   9   0    0.69    0.41
  -6   9   0    0.24    0.43
   7  -9   0   12.06    1.52
  -7  -9   0   10.79    0.94
   7  -9   0    9.84    1.41
  -7   9   0   10.49    1.42
  -7   9   0   12.20    1.33
  -7   9   0   13.16    1.37
   7   9   0   11.71    1.11
  -8  -9   0    3.52    0.69
   8  -9   0    2.21    0.96
  -8  -9   0    2.79    0.67
  -8   9   0    3.60    0.93
  -8   9   0    1.39    0.73
   8   9   0    2.10    0.66
   9  -9   0    3.64    1.03
  -9  -9   0    2.46    0.65
   9   9   0    4.47    0.88
  -9   9   0    3.06    0.89
  -9   9   0    2.04    0.82
  -9   9   0    3.00    0.89
 -10  -9   0    2.43    0.74
  10  -9   0    1.24    0.78
 -10   9   0    2.07    0.75
  10   9   0    1.65    0.69
 -10   9   0    4.50    1.12
 -10   9   0    2.18    0.91
  11  -9   0    0.13    0.68
 -11  -9   0    1.46    0.92
 -11  -9   0    0.40    0.74
 -11   9   0   -0.75    0.57
  11   9   0   -0.89    0.67
 -11   9   0    1.61    0.85
 -11   9   0    0.97    0.85
   0 -10   0    1.26    0.57
   0  10   0    0.50    0.36
  -1 -10   0    5.83    1.03
   1 -10   0    4.46    0.88
   1  10   0    4.69    0.68
  -1  10   0    4.97    0.76
  -1  10   0    4.90    0.50
  -2 -10   0   22.99    1.63
   2 -10   0   21.26    1.00
   2 -10   0   19.21    0.99
  -2  10   0   19.76    1.35
  -2  10   0   20.26    1.08
  -2  10   0   20.21    1.09
   2  10   0   20.04    1.07
   3 -10   0    8.54    1.23
  -3 -10   0    8.11    1.16
   3 -10   0    8.06    0.72
  -3  10   0    9.05    0.99
  -3  10   0    7.92    0.79
  -3  10   0    7.06    0.76
   3  10   0    7.51    0.62
   3  10   0    7.92    0.55
   4 -10   0    9.22    1.47
   4 -10   0    8.29    0.84
  -4 -10   0   10.36    1.57
   4 -10   0    9.82    1.13
  -4  10   0    9.45    0.96
   4  10   0    9.37    0.71
  -4  10   0   10.34    0.99
  -4  10   0    9.94    1.09
   5 -10   0   -0.21    0.32
   5 -10   0   -0.20    0.26
  -5 -10   0    0.45    0.23
   5  10   0   -0.13    0.24
  -5  10   0    0.11    0.40
  -5  10   0    0.14    0.34
  -5  10   0    0.21    0.32
  -6 -10   0    9.95    0.77
  -6 -10   0   10.53    0.77
   6 -10   0   10.24    1.36
   6 -10   0    8.82    1.32
  -6  10   0   11.47    1.28
  -6  10   0   11.14    1.23
  -6  10   0   11.58    1.20
   7 -10   0    0.67    0.52
  -7  10   0    0.50    0.80
   7  10   0    0.65    0.42
  -7  10   0    0.87    0.55
  -7  10   0    0.49    0.49
  -8 -10   0    0.32    0.41
   8 -10   0    1.20    0.73
  -8 -10   0    1.01    0.49
   8 -10   0    0.50    0.51
  -8  10   0    0.50    0.54
  -8  10   0   -0.34    0.35
  -8  10   0    0.99    0.58
   9 -10   0    0.02    0.50
  -9 -10   0    0.26    0.49
  -9 -10   0    0.75    0.52
  -9  10   0    0.03    0.59
   9  10   0    0.35    0.50
  -9  10   0    0.27    0.52
  10 -10   0    4.03    1.22
 -10 -10   0    0.84    0.78
 -10 -10   0    2.07    0.77
 -10  10   0    1.21    0.75
 -10  10   0    0.46    0.64
 -10  10   0    3.84    1.15
   0 -11   0    0.30    0.38
   0  11   0    0.48    0.34
  -1 -11   0   12.53    1.25
   1 -11   0   13.93    1.26
  -1  11   0   10.64    1.00
   1  11   0   11.02    0.93
   2 -11   0    1.43    0.44
   2 -11   0    1.18    0.31
   2 -11   0    0.38    0.42
  -2 -11   0    0.68    0.46
   2  11   0    1.07    0.37
  -2  11   0    0.66    0.34
  -2  11   0    1.16    0.38
  -2  11   0    0.45    0.35
   3 -11   0    0.37    0.26
  -3 -11   0    1.27    0.62
   3 -11   0    0.75    0.32
   3 -11   0   -0.01    0.35
  -3  11   0    0.61    0.39
  -3  11   0    0.63    0.37
   3  11   0    1.06    0.35
  -3  11   0    0.23    0.37
   4 -11   0    0.18    0.41
  -4 -11   0    1.35    0.68
   4 -11   0    1.42    0.46
  -4  11   0    2.09    0.58
  -4  11   0    0.88    0.46
   4  11   0    1.59    0.39
  -4  11   0    1.08    0.50
   4  11   0    0.98    0.31
   5 -11   0   -0.61    0.22
   5 -11   0    0.63    0.53
   5 -11   0   -0.13    0.36
  -5  11   0   -0.28    0.28
   5  11   0   -0.21    0.25
  -5  11   0   -0.04    0.31
  -5  11   0    0.14    0.40
   6 -11   0   17.44    1.48
   6 -11   0   16.22    1.62
  -6 -11   0   15.74    0.87
   6  11   0   19.73    1.24
  -6  11   0   16.82    1.47
  -6  11   0   19.82    1.54
  -6  11   0   16.39    1.57
   7 -11   0    0.68    0.52
   7 -11   0    0.58    0.49
  -7 -11   0    0.39    0.53
  -7  11   0    0.17    0.44
  -7  11   0    0.61    0.51
  -7  11   0    1.21    0.53
   7  11   0    0.61    0.65
  -8 -11   0    4.45    0.69
   8 -11   0    4.59    1.08
   8 -11   0    3.15    1.03
  -8  11   0    3.39    0.98
  -8  11   0    2.51    0.84
  -8  11   0    3.28    0.88
   8  11   0    3.64    0.77
   9 -11   0    3.98    1.15
   9 -11   0    4.21    1.08
  -9 -11   0    3.63    0.72
  -9  11   0    2.77    0.98
  -9  11   0    5.86    1.22
   9  11   0    3.84    0.87
  -9  11   0    4.01    1.14
  10 -11   0    1.11    0.77
  10 -11   0    1.30    0.83
  10  11   0    0.61    0.74
 -10  11   0    3.06    1.03
 -10  11   0    3.39    1.16
 -10  11   0    2.43    0.95
   0 -12   0   70.49    3.07
   0  12   0   64.34    2.53
  -1 -12   0    0.23    0.43
   1 -12   0   -0.13    0.36
   1  12   0    0.03    0.32
  -1  12   0    0.01    0.37
   2 -12   0    7.91    0.63
  -2 -12   0    9.22    1.50
   2 -12   0    8.72    0.64
   2 -12   0    7.95    1.19
  -2  12   0   10.70    1.35
   2  12   0    7.20    1.06
  -2  12   0    8.35    0.77
  -3 -12   0    0.75    0.61
   3 -12   0    1.06    0.36
   3 -12   0    1.03    0.68
   3  12   0    0.56    0.28
  -3  12   0    0.54    0.46
  -3  12   0    1.79    0.50
  -3  12   0    1.65    0.50
   4 -12   0    1.04    0.40
   4 -12   0    1.48    0.64
  -4 -12   0    1.96    0.88
  -4  12   0    0.11    0.37
   4  12   0    1.15    0.34
  -4  12   0    0.76    0.43
  -4  12   0    1.32    0.56
   4  12   0    1.04    0.34
   5 -12   0    0.39    0.40
   5 -12   0    0.42    0.37
   5 -12   0    0.41    0.47
  -5  12   0   -0.08    0.31
  -5  12   0   -0.22    0.32
  -5  12   0   -0.02    0.37
   5  12   0    0.47    0.34
   6 -12   0   10.60    1.13
   6 -12   0   10.13    1.64
  -6  12   0   10.75    1.23
  -6  12   0   11.74    1.60
  -6  12   0   12.42    1.34
   6  12   0   12.59    1.02
   7 -12   0    2.29    0.72
   7 -12   0    2.10    0.89
  -7  12   0    1.17    0.63
   7  12   0    2.70    0.71
  -7  12   0    2.28    0.85
  -7  12   0    2.90    0.85
   8 -12   0    4.26    1.22
   8 -12   0    3.79    1.00
  -8 -12   0    4.42    0.67
  -8  12   0    4.21    1.00
  -8  12   0    2.92    0.79
  -8  12   0    3.68    1.08
   9 -12   0    2.82    0.92
   9 -12   0    3.35    1.03
  -9 -12   0    3.47    0.71
   9  12   0    3.41    0.90
  -9  12   0    3.89    1.12
  -9  12   0    3.33    1.02
  -9  12   0    3.83    1.03
   0 -13   0    0.06    0.39
   0  13   0    0.48    0.35
  -1 -13   0    4.80    1.07
   1 -13   0    3.87    0.91
  -1  13   0    5.53    0.94
   1  13   0    5.79    0.83
  -2 -13   0   22.60    1.90
   2 -13   0   28.57    3.83
   2 -13   0   21.96    0.98
   2  13   0   21.75    1.31
  -2  13   0   22.62    1.60
  -3 -13   0   35.67    2.42
   3 -13   0   32.86    2.17
   3 -13   0   33.99    1.49
   3 -13   0   33.72    1.53
  -3  13   0   32.48    1.63
  -3  13   0   34.49    2.09
   3  13   0   35.92    1.63
  -3  13   0   35.26    1.71
  -4 -13   0    6.69    1.45
   4 -13   0    4.84    0.76
   4 -13   0    3.02    0.86
  -4  13   0    2.52    0.74
  -4  13   0    4.42    0.82
  -4  13   0    4.26    0.79
   4  13   0    3.54    0.53
   5 -13   0    8.01    1.45
  -5  13   0    6.93    1.06
  -5  13   0   13.64    1.80
   5  13   0    8.46    0.76
  -5  13   0    9.56    1.27
   6 -13   0    7.74    1.18
   6 -13   0    5.56    1.17
   6  13   0    7.97    0.84
  -6  13   0    7.83    1.15
  -6  13   0    7.20    1.16
  -6  13   0    7.52    1.34
   7 -13   0    0.26    0.52
   7 -13   0    0.39    0.56
   7  13   0    1.04    0.50
  -7  13   0    0.57    0.53
  -7  13   0    0.58    0.51
   8 -13   0   -0.43    0.50
   8 -13   0    0.21    0.58
  -8  13   0   -0.41    0.46
   8  13   0   -0.70    0.39
  -8  13   0    0.80    0.55
  -8  13   0    0.75    0.52
   9 -13   0    3.93    1.32
   9 -13   0    1.00    0.77
  -9  13   0    1.35    0.82
  -9  13   0    2.80    0.98
   9  13   0    4.13    0.90
  -9  13   0    3.08    1.02
   0 -14   0   70.71    3.37
   0  14   0   71.93    2.85
   1 -14   0    0.06    0.43
  -1 -14   0   -0.59    0.36
   1  14   0    0.09    0.34
  -1  14   0   -0.54    0.25
   2 -14   0   14.89    1.53
  -2 -14   0   13.79    1.58
   2  14   0   14.84    1.15
  -2  14   0   16.61    1.45
   3 -14   0    1.16    0.38
   3 -14   0    1.06    0.68
  -3 -14   0    0.57    0.67
   3 -14   0    1.16    0.37
  -3  14   0    1.24    0.47
  -3  14   0    0.60    0.47
   4 -14   0    0.25    0.35
   4 -14   0    0.10    0.33
  -4 -14   0    0.44    0.67
   4 -14   0   -0.35    0.35
   4  14   0    0.20    0.29
  -4  14   0    1.85    1.12
  -4  14   0    0.31    0.41
  -4  14   0    0.07    0.34
   5 -14   0    4.41    1.01
   5 -14   0    6.35    1.34
  -5  14   0    8.23    1.17
  -5  14   0    7.26    1.12
  -5  14   0    5.06    1.05
   6 -14   0    0.61    0.63
  -6  14   0    1.48    0.65
  -6  14   0    1.65    0.63
   6  14   0    1.09    0.43
  -6  14   0    2.92    0.84
   7 -14   0    1.02    0.61
   7 -14   0    1.55    0.85
   7  14   0    2.30    0.61
  -7  14   0    1.26    0.72
  -7  14   0    1.01    0.62
  -7  14   0    1.73    0.67
   8 -14   0    3.68    0.97
   8 -14   0    1.96    0.94
  -8  14   0    5.12    1.28
  -8  14   0    4.37    1.11
   8  14   0    4.78    0.86
  -8  14   0    2.92    0.91
   0 -15   0    0.46    0.54
   0  15   0    0.20    0.37
  -1 -15   0    4.12    1.15
   1 -15   0    3.88    0.93
  -1  15   0    5.49    0.98
   1  15   0    6.76    1.06
   2 -15   0    3.82    1.04
  -2 -15   0    1.90    0.90
  -2  15   0    2.17    0.71
   2  15   0    1.71    0.55
   3 -15   0    1.99    0.77
  -3 -15   0    2.07    0.86
   3 -15   0    1.84    0.42
  -3  15   0    1.95    0.76
   3  15   0    1.71    0.53
  -4 -15   0    0.11    0.54
   4 -15   0   -0.33    0.28
   4 -15   0    0.83    0.67
   4  15   0    0.05    0.42
  -4  15   0    1.42    0.59
  -4  15   0   -0.03    0.34
  -5 -15   0    2.21    0.82
   5 -15   0    4.57    0.81
   5 -15   0    3.05    1.01
  -5  15   0    4.03    0.96
  -5  15   0    3.11    0.77
  -5  15   0    2.97    0.75
   6 -15   0    2.33    1.00
  -6  15   0    2.58    0.82
  -6  15   0    2.73    0.86
  -6  15   0    4.27    0.96
   7 -15   0    1.52    0.85
   7 -15   0    3.38    0.88
   7  15   0    0.85    0.53
  -7  15   0    1.91    0.72
  -7  15   0    1.92    0.72
  -7  15   0    2.85    0.83
   8 -15   0    1.40    0.86
   8 -15   0    1.53    0.86
  -8  15   0    1.41    0.73
   8  15   0    2.44    0.66
  -8  15   0    1.71    0.81
   0 -16   0    2.40    0.88
   0  16   0    2.12    0.64
   1 -16   0    4.25    1.07
  -1 -16   0    6.79    1.46
  -1  16   0    3.75    0.80
   1  16   0    4.64    0.84
  -2 -16   0    0.57    0.72
   2 -16   0    0.47    0.59
  -2  16   0   -0.18    0.35
   2  16   0    0.01    0.31
  -3 -16   0    0.30    0.62
   3 -16   0    0.14    0.47
  -3  16   0    0.24    0.47
   3  16   0   -0.03    0.35
   4 -16   0    2.74    0.60
  -4 -16   0    1.89    1.11
   4 -16   0    3.44    1.09
  -4  16   0    3.27    0.96
   4  16   0    1.95    0.50
   5 -16   0   -0.36    0.38
   5 -16   0    0.61    0.46
  -5 -16   0    0.00    0.53
  -5  16   0    1.02    0.46
  -5  16   0    0.68    0.60
   6 -16   0   -0.02    0.63
   6 -16   0    0.18    0.49
  -6  16   0   -0.74    0.33
  -6  16   0   -0.25    0.45
   7 -16   0   -0.64    0.59
  -7  16   0    0.68    0.52
   7  16   0    0.83    0.50
  -7  16   0    0.19    0.55
  -7  16   0   -0.22    0.52
   0 -17   0   -0.32    0.45
   0  17   0    0.45    0.48
  -1 -17   0    0.52    0.79
  -1  17   0    0.05    0.42
   1  17   0    0.39    0.46
   2 -17   0    6.55    2.34
  -2 -17   0   10.12    1.87
   2  17   0    8.76    1.16
  -2  17   0    7.77    1.34
  -3 -17   0    3.45    1.05
   3 -17   0    5.84    1.26
  -3  17   0    2.52    0.80
   3  17   0    3.66    0.74
  -4 -17   0    7.98    1.64
   4 -17   0   10.50    1.40
  -4  17   0    8.02    1.33
   4  17   0    7.11    0.88
   5 -17   0    0.14    0.54
   5 -17   0   -0.87    0.45
  -5  17   0   -0.04    0.47
   6 -17   0    0.19    0.58
   6 -17   0   -0.18    0.52
  -6  17   0    0.04    0.46
  -6  17   0    0.60    0.59
   0 -18   0   11.64    1.98
   0  18   0   12.90    1.40
  -1 -18   0    1.42    0.91
   1 -18   0    0.49    0.59
   1  18   0    0.81    0.51
  -1  18   0    1.37    0.63
  -2 -18   0    0.59    0.78
   2 -18   0    0.03    0.53
   2  18   0   -0.47    0.29
  -2  18   0    0.86    0.57
  -3 -18   0    0.92    0.94
   3 -18   0    2.79    0.99
  -3  18   0    1.69    0.82
   3  18   0    1.08    0.46
   4 -18   0    1.95    0.96
  -4 -18   0    1.38    0.80
   4  18   0    2.27    0.59
  -4  18   0    1.80    0.85
   5 -18   0    4.10    1.22
  -5  18   0    1.66    0.88
   0 -19   0    0.23    0.67
   0  19   0   -0.47    0.30
   1 -19   0    1.97    0.96
  -1 -19   0    2.06    0.90
  -1  19   0    1.77    0.69
   1  19   0    2.09    0.61
  -2 -19   0    2.15    1.06
   2 -19   0    1.27    0.86
   2  19   0    1.90    0.62
  -2  19   0    2.15    0.73
  -3 -19   0    1.86    1.48
   3  19   0    1.71    0.58
  -3  19   0    1.73    0.80
  -4 -19   0    5.95    1.55
   4 -19   0    5.88    1.35
   4  19   0    4.88    0.77
  -4  19   0    4.90    1.25
   0 -20   0    7.67    1.82
   0  20   0    8.13    1.26
  -1 -20   0    2.16    1.10
  -1  20   0    2.04    0.79
   1  20   0    1.51    0.67
   2 -20   0    5.07    1.41
  -2 -20   0    4.98    1.46
  -2  20   0    6.14    1.18
   2  20   0    6.19    1.08
 -12   0   1    0.68    0.43
 -12   0   1    0.29    0.70
 -12   0   1    0.80    0.81
 -11   0   1   -0.41    0.51
 -11   0   1   -0.13    0.32
 -11   0   1   -0.24    0.60
  11   0  -1   -0.42    0.51
 -10   0   1    0.59    0.34
 -10   0   1   -0.20    0.45
 -10   0   1    0.05    0.56
  10   0  -1   -0.04    0.53
  -9   0   1    0.28    0.36
  -9   0   1    0.46    0.51
   9   0  -1    0.36    0.27
  -9   0   1   -0.11    0.46
   9   0  -1    0.40    0.44
   8   0  -1    0.27    0.25
  -8   0   1   -0.28    0.65
   8   0  -1   -0.12    0.35
  -8   0   1   -0.01    0.40
  -8   0   1   -0.64    0.42
   7   0  -1    0.23    0.42
  -7   0   1    0.03    0.22
  -7   0   1    0.06    0.36
  -7   0   1    0.27    0.36
   7   0  -1    0.33    0.26
  -6   0   1   -0.05    0.22
   6   0  -1    0.23    0.42
   6   0  -1   -0.29    0.23
  -6   0   1    0.00    0.32
  -6   0   1   -0.13    0.29
   5   0  -1   -0.04    0.27
  -5   0   1    0.01    0.32
  -5   0   1   -0.21    0.21
   5   0  -1   -0.20    0.18
  -5   0   1   -0.03    0.30
  -4   0   1   -0.04    0.27
   4   0  -1    0.02    0.24
   4   0  -1   -0.10    0.15
  -4   0   1    0.14    0.20
  -4   0   1    0.03    0.26
   4   0  -1    0.11    0.26
   3   0  -1   -0.15    0.23
  -3   0   1    0.24    0.19
  -3   0   1   -0.07    0.22
  -3   0   1   -0.25    0.21
   3   0  -1    0.11    0.18
   3   0  -1   -0.10    0.21
   2   0  -1    0.04    0.16
   2   0  -1   -0.09    0.16
  -2   0   1    0.12    0.17
  -2   0   1    0.16    0.20
   2   0  -1    0.11    0.20
  -1   0   1    0.01    0.07
   1   0  -1    0.03    0.09
   1   0  -1   -0.10    0.06
  -1   0   1   -0.02    0.09
   1   0   1    0.04    0.15
  -1   0  -1    0.19    0.16
  -2   0  -1    0.21    0.26
   2   0   1    0.20    0.23
  -2   0  -1    0.10    0.16
  -3   0  -1   -0.04    0.16
  -3   0  -1    0.48    0.31
   3   0   1   -0.01    0.23
   4   0   1    0.27    0.30
  -4   0  -1    0.08    0.30
  -4   0  -1    0.11    0.32
  -4   0  -1   -0.10    0.20
  -5   0  -1    0.19    0.34
  -5   0  -1   -0.41    0.17
  -5   0  -1   -0.05    0.30
   5   0   1   -0.24    0.24
  -6   0  -1    0.60    0.41
  -6   0  -1    0.00    0.30
   6   0   1   -0.11    0.28
  -6   0  -1    0.27    0.27
  -7   0  -1    0.40    0.44
   7   0   1    1.02    0.53
   8   0   1    0.08    0.37
  -8   0  -1    0.40    0.46
  -8   0  -1    0.37    0.48
  -8   0  -1   -0.35    0.26
  -9   0  -1    0.74    0.61
  -9   0  -1    0.22    0.53
   9   0   1   -0.53    0.46
  -9   0  -1    0.95    0.57
 -10   0  -1   -0.27    0.52
  10   0   1   -0.49    0.46
 -10   0  -1    0.03    0.34
 -10   0  -1    0.00    0.57
 -11   0  -1    0.95    0.83
 -11   0  -1    1.17    0.80
 -12  -1   1   -0.85    0.63
 -12  -1   1   -0.53    0.74
 -12  -1   1   -0.64    0.36
  12   1  -1    2.08    1.04
 -12   1   1   -0.80    0.69
 -12   1   1    0.48    0.74
 -12   1   1    0.14    0.46
  11  -1  -1    0.00    0.60
 -11  -1   1    0.91    0.66
 -11  -1   1    0.95    0.69
 -11  -1   1    1.66    0.50
 -11   1   1   -0.19    0.59
 -11   1   1   -0.15    0.42
  11   1  -1   -0.21    0.73
 -11   1   1    0.58    0.62
  10  -1  -1    4.23    0.95
 -10  -1   1    2.46    0.85
 -10  -1   1    1.33    0.54
 -10  -1   1    1.22    0.75
  10   1  -1    1.51    0.72
 -10   1   1    2.68    0.66
 -10   1   1    2.98    0.91
 -10   1   1    1.83    0.75
   9  -1  -1    0.15    0.31
  -9  -1   1    0.35    0.52
   9  -1  -1    1.19    0.58
  -9  -1   1    1.14    0.70
  -9   1   1    0.49    0.53
  -9   1   1   -0.54    0.34
  -9   1   1    0.41    0.40
   9   1  -1    0.36    0.42
   9   1  -1   -0.01    0.27
  -8  -1   1    1.44    0.61
   8  -1  -1   -0.31    0.27
  -8  -1   1    0.49    0.31
   8  -1  -1   -0.07    0.26
  -8  -1   1    0.14    0.40
  -8   1   1    0.80    0.56
  -8   1   1   -0.13    0.31
  -8   1   1    0.07    0.46
   8   1  -1    0.39    0.27
   8   1  -1    0.90    0.48
   7  -1  -1   11.24    1.12
  -7  -1   1   10.99    1.11
  -7  -1   1   12.86    1.19
  -7  -1   1   11.11    0.80
   7  -1  -1   11.45    0.88
   7   1  -1   11.36    1.09
  -7   1   1   12.76    0.94
  -7   1   1   11.70    1.17
   7   1  -1   10.57    0.77
  -7   1   1   11.66    1.14
  -6  -1   1    1.43    0.50
  -6  -1   1    2.16    0.57
   6  -1  -1    2.35    0.45
   6  -1  -1    1.85    0.51
  -6  -1   1    1.47    0.35
   6   1  -1    1.78    0.52
  -6   1   1    2.08    0.45
  -6   1   1    1.60    0.55
  -6   1   1    2.14    0.59
   6   1  -1    2.29    0.42
   5  -1  -1    0.18    0.32
  -5  -1   1    0.06    0.30
   5  -1  -1   -0.18    0.27
  -5  -1   1    0.46    0.24
   5  -1  -1    0.35    0.27
  -5  -1   1    0.28    0.31
  -5   1   1    0.07    0.31
   5   1  -1   -0.20    0.25
  -5   1   1    0.04    0.27
   5   1  -1   -0.20    0.17
   4  -1  -1   17.71    0.87
  -4  -1   1   16.09    0.74
  -4  -1   1   16.43    0.95
   4  -1  -1   17.07    1.03
  -4  -1   1   15.86    0.96
   4   1  -1   16.26    0.98
  -4   1   1   16.18    1.03
   4   1  -1   15.46    0.73
  -4   1   1   17.63    1.04
  -4   1   1   15.94    0.86
   4   1  -1   15.58    0.95
   3  -1  -1   34.14    1.31
  -3  -1   1   33.76    1.25
   3  -1  -1   34.59    1.30
  -3  -1   1   34.52    1.04
  -3  -1   1   35.48    1.26
   3  -1  -1   34.92    1.18
   3   1  -1   34.89    1.27
  -3   1   1   34.07    1.18
  -3   1   1   34.02    1.32
   3   1  -1   33.53    1.03
   3   1  -1   35.88    1.27
  -3   1   1   34.74    1.33
   2  -1  -1   46.80    1.38
   2  -1  -1   44.31    1.28
   2  -1  -1   46.49    1.37
  -2  -1   1   46.89    1.17
   2   1  -1   45.46    1.16
   2   1  -1   46.68    1.30
  -2   1   1   47.18    1.31
  -2   1   1   46.25    1.37
  -2   1   1   46.34    1.38
   2   1  -1   48.88    1.32
   1  -1  -1   16.09    0.69
  -1  -1   1   16.77    0.53
   1  -1  -1   17.43    0.61
   1  -1  -1   16.89    0.59
   1   1  -1   17.22    0.55
  -1   1   1   17.43    0.62
   1  -1   1   10.49    0.55
  -1  -1  -1   10.35    0.52
  -1  -1  -1    9.85    0.55
   1   1   1    9.74    0.52
  -1   1  -1   10.06    0.54
   1   1   1   11.45    0.58
  -2  -1  -1    0.38    0.20
  -2  -1  -1   -0.06    0.21
   2  -1   1    0.12    0.24
  -2   1  -1    0.41    0.26
   2   1   1    0.17    0.23
  -2   1  -1    0.13    0.18
  -3  -1  -1   19.95    0.72
   3  -1   1   21.41    1.10
  -3  -1  -1   20.99    1.07
  -3   1  -1   20.54    1.10
  -3   1  -1   21.46    0.92
   3   1   1   20.42    1.06
  -4  -1  -1   48.22    1.59
   4  -1   1   46.42    1.89
  -4  -1  -1   48.69    1.88
  -4   1  -1   48.63    1.91
  -4   1  -1   46.48    1.59
   4   1   1   49.00    1.88
  -4   1  -1   50.43    1.96
  -5  -1  -1   59.63    1.73
  -5  -1  -1   61.53    2.34
  -5  -1  -1   65.38    2.40
   5  -1   1   58.57    2.34
  -5   1  -1   61.85    1.98
  -5   1  -1   62.00    2.39
   5   1   1   63.33    2.37
  -5   1  -1   63.48    2.42
  -6  -1  -1    2.03    0.61
  -6  -1  -1    2.04    0.57
   6  -1   1    2.64    0.65
  -6  -1  -1    2.61    0.44
   6   1   1    1.71    0.51
  -6   1  -1    2.54    0.67
  -6   1  -1    2.87    0.70
  -6   1  -1    2.92    0.53
   7  -1   1   -0.63    0.32
  -7  -1  -1   -0.24    0.35
  -7  -1  -1    0.08    0.25
  -7  -1  -1    0.27    0.41
  -7   1  -1   -0.03    0.30
   7   1   1    0.26    0.40
  -7   1  -1    0.28    0.49
  -7   1  -1    0.16    0.42
  -8  -1  -1   16.19    1.50
  -8  -1  -1   15.56    1.48
   8  -1   1   16.92    1.52
  -8  -1  -1   15.67    0.99
  -8   1  -1   17.61    1.59
  -8   1  -1   16.06    1.21
   8   1   1   16.23    1.45
  -8   1  -1   15.09    1.50
  -9  -1  -1    3.51    0.94
  -9  -1  -1    5.94    1.19
   9  -1   1    4.78    1.04
  -9  -1  -1    4.80    0.68
  -9   1  -1    5.64    1.19
  -9   1  -1    6.14    1.15
   9   1   1    4.52    1.05
  -9   1  -1    4.50    0.78
 -10  -1  -1    0.08    0.31
 -10  -1  -1   -0.33    0.51
  10  -1   1    0.12    0.60
 -10  -1  -1    0.09    0.99
 -10   1  -1    0.40    0.63
 -10   1  -1   -0.61    0.51
 -10   1  -1   -0.33    0.34
  10   1   1    0.20    0.67
 -11  -1  -1    3.97    1.24
 -11  -1  -1    2.74    0.58
 -11  -1  -1    3.84    1.10
  11   1   1    3.59    0.91
 -11   1  -1    1.47    0.93
 -11   1  -1    2.89    1.07
 -12  -2   1    2.51    0.97
 -12  -2   1    2.67    1.08
 -12   2   1    2.11    0.71
  12   2  -1    1.41    0.82
 -12   2   1    1.25    0.90
 -12   2   1   -0.37    0.86
 -11  -2   1    4.13    0.64
 -11  -2   1    4.34    1.11
 -11  -2   1    5.41    1.15
 -11   2   1    3.88    0.78
 -11   2   1    4.09    1.04
  11   2  -1    4.20    1.02
 -11   2   1    4.59    1.23
 -10  -2   1   -0.02    0.26
 -10  -2   1    0.97    0.59
 -10  -2   1    1.74    1.31
  10  -2  -1    0.75    0.51
 -10   2   1   -0.80    0.51
 -10   2   1   -0.50    0.43
  10   2  -1    0.63    0.58
  -9  -2   1   12.89    0.91
   9  -2  -1   13.84    1.14
  -9  -2   1   15.30    1.48
   9  -2  -1   13.88    1.49
  -9  -2   1   13.44    1.35
  -9   2   1   12.73    1.15
   9   2  -1   14.25    0.93
  -9   2   1   14.86    1.52
   9   2  -1   14.68    1.40
  -9   2   1   14.33    1.47
  -8  -2   1    8.03    1.19
  -8  -2   1    7.65    1.14
   8  -2  -1    7.34    0.81
  -8  -2   1    7.19    0.66
   8  -2  -1    7.05    1.10
  -8   2   1    6.81    1.14
   8   2  -1    6.51    0.64
  -8   2   1    7.37    1.15
  -8   2   1    6.56    0.89
   8   2  -1    9.58    1.08
  -7  -2   1   -0.06    0.21
   7  -2  -1    0.59    0.34
  -7  -2   1    0.80    0.41
   7  -2  -1   -0.25    0.33
  -7  -2   1    0.18    0.35
   7   2  -1    0.51    0.25
  -7   2   1    1.15    0.42
  -7   2   1    0.45    0.45
  -7   2   1    0.27    0.38
  -6  -2   1    2.84    0.43
  -6  -2   1    1.86    0.51
  -6  -2   1    3.07    0.64
   6  -2  -1    2.06    0.49
   6  -2  -1    2.26    0.58
  -6   2   1    2.12    0.61
  -6   2   1    2.03    0.60
   6   2  -1    2.43    0.56
   6   2  -1    2.43    0.38
  -5  -2   1    4.17    0.44
  -5  -2   1    4.49    0.68
   5  -2  -1    4.00    0.67
   5  -2  -1    4.07    0.69
  -5  -2   1    3.11    0.57
   5  -2  -1    3.32    0.52
  -5   2   1    4.58    0.75
  -5   2   1    4.14    0.60
   5   2  -1    3.67    0.41
  -5   2   1    3.12    0.65
   5   2  -1    4.60    0.72
   4  -2  -1    7.03    0.70
   4  -2  -1    5.92    0.61
  -4  -2   1    7.56    0.49
  -4  -2   1    6.52    0.66
   4  -2  -1    7.70    0.74
   4   2  -1    7.40    0.48
   4   2  -1    7.62    0.68
   4   2  -1    7.53    0.70
  -4   2   1    7.48    0.68
  -4   2   1    7.52    0.76
  -4   2   1    7.01    0.74
   3  -2  -1   24.16    1.01
   3  -2  -1   24.36    1.08
  -3  -2   1   24.33    0.96
  -3  -2   1   22.28    0.76
   3  -2  -1   24.13    1.10
   3   2  -1   23.49    0.98
   3   2  -1   22.84    0.77
   3   2  -1   23.75    0.99
  -3   2   1   23.93    1.11
  -3   2   1   23.13    1.01
  -3   2   1   22.86    1.09
   2  -2  -1    0.02    0.22
   2  -2  -1    0.35    0.23
  -2  -2   1    0.18    0.17
   2  -2  -1    0.12    0.18
   2  -2  -1    0.25    0.22
   2   2  -1    0.16    0.21
  -2   2   1    0.40    0.23
   2   2  -1   -0.07    0.15
  -2   2   1    0.13    0.20
  -2   2   1    0.22    0.24
   2   2  -1   -0.02    0.11
   1  -2  -1    0.67    0.21
   1  -2  -1    0.96    0.22
   1  -2  -1    1.00    0.20
  -1  -2   1    0.80    0.23
   1  -2  -1    0.63    0.19
   1  -2  -1    0.60    0.18
   1   2  -1    1.23    0.26
  -1   2   1    0.98    0.24
  -1   2   1    0.72    0.19
   1   2  -1    0.62    0.13
   0  -2  -1  305.18    5.82
   0  -2   1  282.70    5.49
   0  -2  -1  294.97    5.54
   0  -2   1  288.73    5.53
   0   2  -1  285.57    5.50
   0   2  -1  292.42    5.52
   0   2   1  293.05    5.55
   0   2   1  299.89    5.78
   1  -2   1   21.48    0.81
  -1  -2  -1   20.93    0.91
   1   2   1   21.07    0.78
   1   2   1   21.22    0.89
  -1   2  -1   20.36    0.80
   2  -2   1   12.70    0.77
  -2   2  -1   11.91    0.76
   2   2   1   13.95    0.74
  -2   2  -1   12.62    0.72
   2   2   1   13.12    0.82
   3  -2   1   13.33    0.89
  -3  -2  -1   13.36    0.85
   3   2   1   12.59    0.83
   3   2   1   12.66    0.90
  -3   2  -1   13.91    0.80
  -3   2  -1   12.98    0.91
   4  -2   1   30.80    1.52
  -4  -2  -1   31.25    1.46
  -4   2  -1   34.75    1.39
  -4   2  -1   32.90    1.59
   4   2   1   32.93    1.50
  -4   2  -1   32.96    1.56
  -5  -2  -1   26.97    1.48
  -5  -2  -1   26.44    1.44
  -5  -2  -1   26.65    0.93
   5   2   1   27.52    1.50
  -5   2  -1   27.40    1.56
  -5   2  -1   28.82    1.32
  -5   2  -1   27.11    2.22
  -6  -2  -1   14.79    1.19
   6  -2   1   12.79    1.14
  -6  -2  -1   12.82    0.68
  -6  -2  -1   12.17    1.09
  -6   2  -1   11.80    1.12
  -6   2  -1   14.51    1.01
  -6   2  -1   10.83    1.13
  -7  -2  -1    1.54    0.34
  -7  -2  -1    1.85    0.61
  -7  -2  -1    2.58    0.71
   7  -2   1    2.21    0.67
  -7   2  -1    1.64    0.59
  -7   2  -1    1.49    0.57
   7   2   1    1.81    0.58
  -8  -2  -1   18.65    1.55
   8  -2   1   17.35    1.57
  -8  -2  -1   16.98    1.53
  -8   2  -1   19.72    1.30
  -8   2  -1   17.16    1.59
   8   2   1   17.17    1.50
  -8   2  -1   18.47    1.63
  -9  -2  -1    0.45    0.62
   9  -2   1    1.30    1.09
  -9  -2  -1    0.90    0.66
  -9   2  -1    0.05    0.36
  -9   2  -1    0.27    0.50
  -9   2  -1    0.87    0.66
   9   2   1    1.13    0.69
  10  -2   1    3.09    0.95
 -10  -2  -1    2.95    0.92
 -10  -2  -1    0.97    0.67
 -10   2  -1    2.48    0.94
 -10   2  -1    1.55    0.61
  10   2   1    1.82    0.75
 -10   2  -1    1.88    0.89
 -11  -2  -1    1.20    0.82
 -11   2  -1   -0.71    0.56
  11   2   1   -0.13    0.65
 -11   2  -1    0.04    0.40
 -11   2  -1    0.62    0.68
 -12  -3   1    0.38    0.78
 -12  -3   1    2.46    0.99
  12   3  -1    1.63    0.94
 -12   3   1    0.17    0.78
 -12   3   1    1.69    0.69
 -12   3   1   -0.90    0.77
 -11  -3   1    0.51    0.68
 -11  -3   1   -1.17    0.52
 -11   3   1   -0.53    0.54
 -11   3   1    0.05    0.65
  11   3  -1   -0.21    0.55
 -11   3   1   -0.20    0.38
 -10  -3   1    1.03    0.67
 -10  -3   1    0.78    0.60
  10  -3  -1    0.72    0.62
 -10   3   1    2.20    0.64
  10   3  -1    2.34    0.69
 -10   3   1    1.49    0.80
 -10   3   1    1.63    0.70
  -9  -3   1    4.73    0.60
   9  -3  -1    4.24    0.97
  -9  -3   1    5.51    1.06
  -9  -3   1    4.19    0.90
   9  -3  -1    5.38    0.91
  -9   3   1    4.47    0.94
  -9   3   1    4.12    0.81
   9   3  -1    2.74    0.78
  -9   3   1    4.09    0.96
  -8  -3   1   24.23    1.08
  -8  -3   1   25.49    1.69
   8  -3  -1   23.56    1.45
  -8  -3   1   25.41    1.64
   8  -3  -1   20.72    1.66
  -8   3   1   22.73    1.76
   8   3  -1   25.05    1.08
  -8   3   1   25.88    1.84
   8   3  -1   26.71    1.75
  -8   3   1   25.93    1.55
   7  -3  -1    6.14    0.87
  -7  -3   1    6.84    0.96
  -7  -3   1    7.85    0.58
   7  -3  -1    7.56    1.09
  -7  -3   1    5.86    0.89
   7   3  -1    8.34    0.93
  -7   3   1    7.80    1.00
   7   3  -1    7.15    0.55
  -7   3   1    8.14    1.18
  -7   3   1    8.66    1.24
  -6  -3   1    0.48    0.34
  -6  -3   1    0.09    0.17
  -6  -3   1   -0.32    0.24
   6  -3  -1    0.20    0.27
   6  -3  -1   -0.27    0.25
   6   3  -1    0.16    0.17
   6   3  -1    0.09    0.27
  -6   3   1    0.00    0.33
  -6   3   1   -0.09    0.27
  -6   3   1   -0.07    0.30
   5  -3  -1    8.98    0.88
   5  -3  -1    9.13    0.79
  -5  -3   1    9.16    0.82
  -5  -3   1   10.64    0.56
   5  -3  -1    9.84    0.90
   5   3  -1   10.39    0.56
  -5   3   1    8.67    0.90
   5   3  -1   10.31    0.86
  -5   3   1    9.77    0.94
  -5   3   1   10.98    0.88
   4  -3  -1   35.67    1.53
  -4  -3   1   36.98    1.43
   4  -3  -1   37.30    1.58
   4  -3  -1   35.46    1.46
  -4   3   1   36.30    1.59
  -4   3   1   37.09    1.48
   4   3  -1   34.28    1.03
   4   3  -1   36.48    1.43
  -4   3   1   37.24    1.60
   3  -3  -1  232.22    5.16
  -3  -3   1  228.04    4.85
   3  -3  -1  237.52    5.14
   3  -3  -1  238.58    5.20
  -3   3   1  232.47    5.13
   3   3  -1  231.69    4.89
   3   3  -1  233.77    4.58
  -3   3   1  235.61    5.19
   3   3  -1  233.44    5.44
  -3   3   1  241.18    5.22
   3   3  -1  231.99    4.91
   2  -3  -1   38.57    1.32
   2  -3  -1   39.36    1.30
  -2  -3   1   39.60    1.05
   2  -3  -1   41.44    1.31
   2  -3  -1   41.36    1.36
  -2   3   1   37.89    1.30
   2   3  -1   38.86    1.08
  -2   3   1   38.91    1.34
  -2   3   1   40.09    1.32
   2   3  -1   39.44    1.08
   2   3  -1   38.69    1.44
   1  -3  -1    2.31    0.31
   1  -3  -1    2.26    0.30
   1  -3  -1    2.79    0.47
  -1  -3   1    2.26    0.37
   1  -3  -1    2.44    0.36
  -1   3   1    1.82    0.36
  -1   3   1    2.01    0.33
  -1   3   1    2.32    0.32
  -1   3   1    2.25    0.33
   1   3  -1    2.79    0.42
   0  -3   1  206.35    4.04
   0  -3  -1  217.47    4.57
   0  -3  -1  220.65    4.24
   0  -3   1  211.71    4.30
   0   3   1  217.72    4.54
   0   3  -1  205.56    4.07
   0   3   1  216.07    4.22
   0   3  -1  205.05    4.27
   0   3   1  209.36    4.22
  -1  -3  -1  102.24    2.09
   1  -3   1  101.84    2.38
  -1  -3  -1  102.40    2.68
   1  -3   1  102.34    2.38
   1   3   1  105.08    2.67
  -1   3  -1  102.58    2.52
  -1   3  -1   99.70    2.38
   1   3   1  108.07    2.36
  -2  -3  -1   13.06    0.89
   2  -3   1   10.94    0.72
  -2   3  -1   11.38    0.76
   2   3   1   11.83    0.84
  -2   3  -1   11.45    0.74
   2   3   1   11.54    0.68
  -3  -3  -1    7.28    0.78
   3   3   1    8.27    0.78
  -3   3  -1    9.56    0.74
   3   3   1    9.05    0.72
  -3   3  -1    9.84    0.82
   4  -3   1    1.91    0.49
  -4  -3  -1    2.77    0.55
  -4   3  -1    2.89    0.61
   4   3   1    1.43    0.44
  -4   3  -1    1.65    0.47
  -4   3  -1    1.67    0.43
  -5  -3  -1    0.87    0.41
  -5  -3  -1    1.63    0.48
   5  -3   1    1.11    0.42
  -5   3  -1    0.15    0.32
  -5   3  -1    0.35    0.28
   5   3   1    1.20    0.42
  -6  -3  -1    4.69    0.83
   6  -3   1    5.81    0.89
  -6  -3  -1    3.08    0.67
  -6   3  -1    4.24    0.69
  -6   3  -1    5.17    0.95
  -6   3  -1    4.13    0.85
   6   3   1    3.63    0.75
  -7  -3  -1    0.63    0.45
  -7  -3  -1   -0.50    0.30
   7  -3   1   -0.72    0.26
  -7   3  -1   -0.19    0.29
  -7   3  -1   -0.35    0.32
   7   3   1    0.16    0.34
  -7   3  -1   -0.29    0.37
  -8  -3  -1    0.74    0.52
   8  -3   1    2.24    0.66
  -8  -3  -1    1.33    0.60
  -8   3  -1    0.88    0.48
   8   3   1    1.75    0.65
  -8   3  -1    1.12    0.61
  -8   3  -1    1.16    0.59
  -9  -3  -1    6.51    1.17
  -9  -3  -1    6.25    1.35
   9  -3   1    2.79    0.85
  -9   3  -1    3.26    0.70
  -9   3  -1    2.89    0.83
   9   3   1    2.96    0.86
  -9   3  -1    3.08    0.91
 -10  -3  -1   -0.76    0.52
 -10  -3  -1   -0.06    0.60
 -10   3  -1   -0.09    0.51
 -10   3  -1   -0.08    0.44
  10   3   1    0.79    0.56
 -10   3  -1   -0.26    0.50
 -11  -3  -1    1.17    0.88
 -11  -3  -1    1.67    1.01
 -11   3  -1    2.72    0.94
  11   3   1    2.54    1.34
 -11   3  -1    2.36    0.98
 -11   3  -1    3.81    0.85
  12  -4  -1   -0.35    0.57
 -12  -4   1   -0.11    0.73
 -12  -4   1    0.81    0.88
 -12   4   1    1.21    0.62
 -12   4   1    1.22    0.83
 -12   4   1    0.47    0.72
  12   4  -1    0.55    0.85
 -11  -4   1    0.85    1.04
 -11  -4   1    1.87    0.84
 -11   4   1    1.51    0.92
 -11   4   1   -0.87    1.00
  11   4  -1    2.40    0.74
 -11   4   1    0.49    0.47
 -10  -4   1    0.40    0.58
 -10  -4   1    0.71    0.54
 -10   4   1   -0.08    0.43
 -10   4   1    0.53    0.55
  10   4  -1    0.54    0.69
 -10   4   1    1.05    0.70
  -9  -4   1   -0.02    0.41
  -9  -4   1    0.20    0.42
   9  -4  -1   -0.06    0.31
   9  -4  -1   -0.62    0.40
  -9   4   1    0.28    0.51
  -9   4   1   -0.31    0.38
  -9   4   1    0.37    0.39
  -8  -4   1    3.20    0.75
  -8  -4   1    2.74    0.69
   8  -4  -1    2.94    0.74
   8  -4  -1    3.45    0.69
  -8   4   1    4.98    0.99
  -8   4   1    2.89    0.70
   8   4  -1    3.14    0.73
  -8   4   1    3.30    0.79
   7  -4  -1    9.89    1.08
  -7  -4   1    9.40    0.99
   7  -4  -1   12.49    1.03
   7   4  -1   11.33    1.06
  -7   4   1   10.71    1.18
  -7   4   1   10.38    1.16
  -7   4   1   12.70    1.11
  -6  -4   1   25.98    1.41
   6  -4  -1   28.29    1.49
   6  -4  -1   26.30    1.59
  -6   4   1   27.24    1.78
   6   4  -1   28.37    1.49
  -6   4   1   28.92    1.69
  -6   4   1   29.47    1.54
   5  -4  -1   25.60    1.34
   5  -4  -1   25.83    1.43
  -5  -4   1   25.10    1.75
  -5   4   1   22.86    1.69
   5   4  -1   24.60    1.28
  -5   4   1   24.11    1.43
  -4  -4   1   25.43    1.10
   4  -4  -1   26.50    1.29
   4  -4  -1   24.27    1.30
   4  -4  -1   25.60    1.31
   4   4  -1   26.20    1.17
  -4   4   1   26.57    1.32
  -4   4   1   25.12    1.34
  -4   4   1   26.99    1.38
   3  -4  -1   77.78    2.32
  -3  -4   1   80.68    2.01
   3  -4  -1   84.12    2.42
  -3  -4   1   79.22    2.01
   3   4  -1   80.42    2.07
  -3   4   1   81.86    2.38
  -3   4   1   80.39    2.36
   3   4  -1   80.19    2.59
  -3   4   1   79.36    2.38
   3   4  -1   83.87    1.87
   3   4  -1   78.36    2.08
   2  -4  -1   91.96    2.60
   2  -4  -1   92.49    2.33
  -2  -4   1   90.89    2.60
   2  -4  -1   89.46    2.32
   2  -4  -1   89.47    2.42
  -2   4   1   88.28    2.31
  -2   4   1   85.07    2.39
  -2   4   1   90.00    2.34
   2   4  -1   91.07    2.57
   2   4  -1   88.22    1.95
   1  -4  -1   -0.26    0.18
  -1  -4   1   -0.20    0.21
   1  -4  -1    0.14    0.18
   1  -4  -1   -0.14    0.15
   1  -4  -1    0.24    0.22
   1   4  -1    0.33    0.25
  -1   4   1    0.07    0.21
  -1   4   1    0.26    0.22
   0  -4  -1  135.71    2.89
   0  -4   1  129.38    3.01
   0  -4  -1  129.10    2.73
   0  -4  -1  128.26    3.22
   0   4  -1  126.33    2.97
   0   4   1  133.27    3.21
   0   4  -1  124.39    2.61
   0   4   1  130.52    2.77
   0   4   1  131.38    2.87
   1  -4   1    4.51    0.56
  -1  -4  -1    3.62    0.36
   1  -4   1    3.69    0.41
  -1  -4  -1    2.61    0.44
  -1  -4  -1    3.50    0.32
   1   4   1    3.53    0.32
   1   4   1    4.38    0.40
  -1   4  -1    4.58    0.58
  -1   4  -1    4.09    0.44
   1   4   1    5.02    0.68
   2  -4   1    5.15    0.54
  -2  -4  -1    3.43    0.56
  -2   4  -1    5.33    0.65
   2   4   1    4.82    0.73
   2   4   1    5.02    0.64
   3  -4   1   20.41    1.12
   3   4   1   21.77    1.05
   3   4   1   19.52    1.23
  -3   4  -1   21.78    1.15
  -3   4  -1   19.33    1.11
  -3   4  -1   20.17    1.14
  -4  -4  -1   -0.35    0.22
   4  -4   1    0.19    0.29
  -4   4  -1    0.08    0.31
  -4   4  -1    0.16    0.32
  -4   4  -1    0.17    0.31
   4   4   1   -0.31    0.22
  -5  -4  -1    3.48    0.65
  -5  -4  -1    3.51    0.59
   5  -4   1    4.08    0.72
  -5   4  -1    3.46    0.62
   5   4   1    2.78    0.58
  -5   4  -1    3.51    0.85
  -5   4  -1    5.55    0.94
  -6  -4  -1    0.35    0.35
  -6  -4  -1    0.00    0.32
  -6   4  -1    0.14    0.33
   6   4   1    0.35    0.34
  -6   4  -1    0.46    0.42
  -6   4  -1    0.54    0.42
   7  -4   1    1.34    0.53
  -7  -4  -1    0.74    0.46
  -7  -4  -1    1.21    0.56
   7   4   1    0.23    0.49
  -7   4  -1    0.25    0.39
  -7   4  -1    0.79    0.53
  -7   4  -1    0.16    0.35
  -8  -4  -1    5.01    0.99
  -8  -4  -1    4.92    0.93
  -8   4  -1    6.09    1.19
  -8   4  -1    4.93    0.85
  -8   4  -1    4.90    1.10
   8   4   1    2.92    0.75
   9  -4   1    2.67    0.84
  -9  -4  -1    4.71    1.03
  -9  -4  -1    4.94    1.03
   9   4   1    4.45    0.97
  -9   4  -1    4.76    0.90
  -9   4  -1    7.03    1.33
  -9   4  -1    4.71    1.14
 -10  -4  -1    2.17    1.00
 -10  -4  -1    1.49    0.77
 -10   4  -1    0.71    0.51
  10   4   1    2.91    0.88
 -10   4  -1    2.09    0.94
 -10   4  -1    2.71    1.00
 -11  -4  -1   -0.74    0.70
 -11  -4  -1    0.04    0.71
  11   4   1    0.22    0.85
 -11   4  -1    1.98    0.94
 -11   4  -1    1.02    0.51
 -12  -5   1   -0.75    0.70
  12  -5  -1   -0.32    0.62
  12   5  -1   -0.24    0.80
 -12   5   1   -0.64    0.71
 -12   5   1    0.33    0.61
 -11  -5   1    0.45    0.64
  11  -5  -1   -0.28    0.55
 -11  -5   1    0.10    0.61
 -11   5   1    0.19    0.64
 -11   5   1    1.91    0.87
 -11   5   1    0.37    0.45
  11   5  -1    0.77    0.54
 -10  -5   1    2.82    0.84
 -10  -5   1    3.55    0.84
 -10   5   1    3.43    1.01
 -10   5   1    3.17    0.79
 -10   5   1    4.06    1.08
  10   5  -1    4.23    1.03
  -9  -5   1    1.76    0.62
  -9  -5   1    2.08    0.63
   9  -5  -1    1.00    0.47
   9  -5  -1    2.75    0.87
  -9   5   1    1.29    0.57
   9   5  -1    2.28    0.71
  -9   5   1    3.29    0.95
  -9   5   1    1.42    0.69
   8  -5  -1    1.41    0.59
  -8  -5   1    2.09    0.66
   8  -5  -1    3.43    0.80
  -8   5   1    1.57    0.70
  -8   5   1    2.14    0.78
  -8   5   1    1.31    0.56
   8   5  -1    2.11    0.62
   7  -5  -1    9.98    0.97
   7  -5  -1    9.04    1.05
  -7  -5   1   10.38    0.97
  -7   5   1    8.59    1.23
  -7   5   1    9.11    1.01
   7   5  -1    8.31    0.92
  -7   5   1    9.62    1.32
   6  -5  -1    4.16    0.68
   6  -5  -1    6.12    0.89
  -6  -5   1    4.88    0.85
  -6   5   1    8.59    1.19
  -6   5   1    5.38    0.89
  -6   5   1    5.91    0.89
   6   5  -1    4.89    0.76
   5  -5  -1   11.95    0.96
   5  -5  -1   14.16    1.08
  -5  -5   1   10.95    0.80
  -5  -5   1   10.52    1.14
  -5   5   1   14.22    1.33
   5   5  -1   12.77    0.90
  -5   5   1   11.86    1.06
   4  -5  -1    6.85    0.74
  -4  -5   1    6.05    0.55
  -4  -5   1    6.08    0.56
   4  -5  -1    6.68    0.75
   4  -5  -1    7.37    0.80
   4  -5  -1    6.36    0.83
  -4   5   1    5.29    0.74
  -4   5   1    8.31    0.85
   4   5  -1    6.19    0.60
  -4   5   1    6.66    0.76
  -3  -5   1   21.27    0.81
   3  -5  -1   22.10    1.19
   3  -5  -1   24.22    1.16
   3  -5  -1   22.60    1.11
   3  -5  -1   21.30    1.15
   3   5  -1   23.35    0.91
   3   5  -1   22.15    1.30
  -3   5   1   23.20    1.17
  -3   5   1   24.70    1.24
   2  -5  -1    1.98    0.44
   2  -5  -1    2.48    0.48
   2  -5  -1    1.93    0.38
  -2  -5   1    2.02    0.53
   2  -5  -1    1.49    0.29
   2  -5  -1    2.38    0.41
  -2   5   1    2.64    0.43
  -2   5   1    2.49    0.49
   2   5  -1    2.02    0.46
  -2   5   1    1.78    0.38
   2   5  -1    2.20    0.24
   1  -5  -1   15.34    0.70
   1  -5  -1   17.55    0.88
  -1  -5   1   16.64    0.96
   1  -5  -1   17.15    1.00
   1  -5  -1   16.76    0.72
   1   5  -1   17.05    0.93
  -1   5   1   16.66    0.76
  -1   5   1   16.18    0.87
  -1   5   1   16.55    1.14
   0  -5   1   15.14    0.86
   0  -5  -1   15.96    0.63
   0  -5  -1   15.78    0.77
   0  -5  -1   17.07    1.01
   0   5   1   15.75    1.13
   0   5   1   16.05    0.77
   0   5  -1   16.99    0.87
   0   5  -1   16.32    0.58
   0   5   1   15.08    0.66
   0   5  -1   15.46    0.83
  -1  -5  -1  120.95    3.30
   1  -5   1  117.72    2.71
   1  -5   1  117.37    2.98
  -1  -5  -1  121.62    2.57
  -1  -5  -1  121.00    2.64
  -1   5  -1  114.78    2.94
   1   5   1  122.30    2.67
  -1   5  -1  114.68    2.73
  -1   5  -1  114.93    3.04
   1   5   1  118.36    3.24
   1   5   1  118.46    2.63
  -2  -5  -1    8.20    0.85
   2  -5   1    7.59    0.63
  -2  -5  -1    6.82    0.72
   2  -5   1    7.62    0.67
  -2   5  -1    7.56    0.65
  -2   5  -1    7.88    0.68
   2   5   1    7.46    0.76
   2   5   1    8.18    0.59
  -2   5  -1    7.69    0.72
   3  -5   1    6.94    0.70
  -3  -5  -1    5.64    0.80
  -3   5  -1    7.14    0.76
  -3   5  -1    8.22    0.75
  -3   5  -1    8.62    0.80
   3   5   1    7.03    0.65
   4  -5   1   -0.24    0.25
  -4  -5  -1    0.20    0.26
  -4   5  -1    0.23    0.34
  -4   5  -1    0.43    0.65
   4   5   1    0.12    0.27
  -4   5  -1    0.65    0.37
   5  -5   1   15.30    1.18
  -5  -5  -1   14.61    1.04
   5   5   1   15.62    1.09
  -5   5  -1   15.54    1.22
  -5   5  -1   14.86    1.13
  -5   5  -1   13.77    1.16
  -6  -5  -1    1.31    0.47
   6  -5   1    1.32    0.49
  -6   5  -1    1.50    0.55
  -6   5  -1    1.10    0.43
   6   5   1    0.90    0.45
  -6   5  -1    0.72    0.50
  -7  -5  -1   -0.17    0.35
   7  -5   1   -0.03    0.37
  -7  -5  -1    0.76    0.47
  -7   5  -1    0.61    0.51
   7   5   1    0.30    0.35
  -7   5  -1    0.72    0.45
  -7   5  -1    0.29    0.49
  -8  -5  -1   16.88    1.44
   8  -5   1   16.08    1.57
  -8  -5  -1   17.87    1.50
  -8   5  -1   14.25    1.30
  -8   5  -1   15.37    1.54
   8   5   1   14.80    1.38
  -8   5  -1   16.83    1.61
  -9  -5  -1    0.18    0.48
  -9  -5  -1    0.49    0.50
  -9   5  -1    0.63    0.46
  -9   5  -1    0.40    0.59
  -9   5  -1   -0.26    0.48
   9   5   1    0.44    0.47
 -10  -5  -1    2.42    0.84
 -10  -5  -1    3.21    0.91
  10   5   1    2.75    0.92
 -10   5  -1    2.06    0.79
 -10   5  -1    3.43    0.85
 -10   5  -1    0.54    0.69
 -11  -5  -1    0.42    0.74
 -11  -5  -1   -1.39    0.59
  11   5   1   -0.66    0.74
 -11   5  -1    0.33    0.65
 -11   5  -1    0.30    0.46
 -11   5  -1   -1.07    0.62
 -12  -6   1    3.54    1.06
 -12  -6   1    1.33    1.06
  12  -6  -1    1.56    0.88
 -12   6   1    4.46    1.17
 -12   6   1    5.01    1.27
  12   6  -1    2.94    1.17
 -12   6   1    3.78    0.97
 -11  -6   1    4.49    0.97
 -11  -6   1    4.28    1.05
  11  -6  -1    1.18    1.34
  11   6  -1    4.40    0.99
 -11   6   1    4.05    0.99
 -11   6   1    5.10    1.12
 -11   6   1    4.07    1.15
 -10  -6   1   -0.84    0.50
  10  -6  -1    1.05    0.63
 -10   6   1    1.03    0.61
 -10   6   1    0.69    0.59
  10   6  -1    0.40    0.47
 -10   6   1    0.29    0.55
  -9  -6   1    0.14    0.44
   9  -6  -1    1.27    0.65
  -9  -6   1   -0.61    0.38
  -9   6   1    0.22    0.44
  -9   6   1    0.35    0.48
   9   6  -1    0.30    0.46
  -9   6   1   -0.50    0.41
   8  -6  -1   -0.04    0.39
  -8  -6   1    0.30    0.36
   8  -6  -1    0.16    0.42
  -8   6   1    0.31    0.40
   8   6  -1    1.01    0.50
  -8   6   1    1.48    0.67
  -8   6   1    0.82    0.56
   7  -6  -1   26.12    1.74
  -7  -6   1   23.94    1.52
  -7  -6   1   28.15    1.54
   7  -6  -1   25.97    1.62
  -7   6   1   29.93    1.89
  -7   6   1   27.21    1.84
   7   6  -1   28.73    1.63
  -7   6   1   26.29    1.68
   6  -6  -1    0.93    0.41
  -6  -6   1    0.21    0.29
  -6   6   1    0.76    0.45
  -6   6   1    0.74    0.45
  -6   6   1    0.61    0.37
   5  -6  -1   29.06    1.56
  -5  -6   1   30.90    1.29
  -5  -6   1   29.33    1.27
   5  -6  -1   27.36    1.53
   5  -6  -1   27.80    1.60
  -5   6   1   30.18    1.62
  -5   6   1   30.07    1.63
  -5   6   1   28.26    1.57
   4  -6  -1   18.29    1.13
   4  -6  -1   17.28    1.12
  -4  -6   1   18.65    0.85
   4  -6  -1   20.08    1.22
   4  -6  -1   18.78    1.21
  -4  -6   1   19.08    0.86
  -4   6   1   18.51    1.23
   4   6  -1   18.59    0.94
  -4   6   1   17.91    1.18
  -4   6   1   20.67    1.24
   3  -6  -1   15.47    0.98
   3  -6  -1   15.62    1.13
   3  -6  -1   15.07    1.13
   3  -6  -1   15.75    0.96
  -3  -6   1   16.47    1.21
   3  -6  -1   14.50    1.15
  -3   6   1   15.90    1.00
  -3   6   1   15.56    1.07
  -3   6   1   17.51    1.04
   3   6  -1   15.52    0.72
   2  -6  -1    7.96    0.63
  -2  -6   1    8.05    0.83
   2  -6  -1    8.13    0.73
   2  -6  -1    8.72    0.63
   2  -6  -1    8.99    0.85
  -2   6   1    7.81    0.74
   2   6  -1    8.85    0.79
  -2   6   1    8.13    0.67
   1  -6  -1    0.49    0.29
  -1  -6   1    0.43    0.31
   1  -6  -1    0.11    0.28
   1  -6  -1    0.18    0.19
   1  -6  -1    0.34    0.22
  -1   6   1    1.07    0.40
  -1   6   1    0.08    0.19
  -1   6   1    0.35    0.25
   1   6  -1    0.24    0.23
   1   6  -1    0.73    0.34
   0  -6  -1  147.02    3.09
   0  -6   1  144.75    3.67
   0  -6  -1  156.12    3.48
   0  -6  -1  148.32    3.04
   0  -6  -1  150.08    3.92
   0  -6  -1  147.74    3.05
   0   6  -1  140.98    3.54
   0   6  -1  142.38    3.62
   0   6  -1  145.21    2.99
   0   6   1  144.07    3.21
   0   6   1  146.55    3.44
   0   6   1  147.27    3.84
   0   6  -1  144.72    3.00
  -1  -6  -1    0.30    0.17
   1  -6   1    0.18    0.21
  -1  -6  -1    0.29    0.35
   1  -6   1    0.26    0.30
  -1  -6  -1    0.59    0.24
  -1   6  -1    0.54    0.24
  -1   6  -1    0.32    0.27
   1   6   1    0.35    0.21
  -1   6  -1    0.83    0.32
  -1   6  -1    0.48    0.23
   1   6   1    0.51    0.34
  -2  -6  -1  227.53    4.57
   2  -6   1  216.96    4.90
  -2  -6  -1  229.05    5.66
   2  -6   1  219.13    5.18
  -2   6  -1  215.77    4.94
   2   6   1  234.12    4.76
  -2   6  -1  218.77    5.26
   2   6   1  219.15    4.44
  -2   6  -1  219.21    4.94
  -3  -6  -1    0.54    0.38
   3  -6   1   -0.23    0.26
  -3  -6  -1   -0.08    0.20
   3  -6   1    0.09    0.24
   3   6   1   -0.03    0.23
  -3   6  -1   -0.10    0.39
  -3   6  -1    0.13    0.29
   4  -6   1    2.66    0.60
  -4  -6  -1    2.29    0.45
   4   6   1    2.17    0.48
  -4   6  -1    3.42    0.71
  -4   6  -1    2.44    0.55
  -4   6  -1    2.19    0.53
   5  -6   1    5.05    0.80
  -5  -6  -1    4.48    0.67
  -5   6  -1    5.77    0.89
   5   6   1    4.84    0.76
  -5   6  -1    6.20    0.98
  -5   6  -1    6.01    0.92
  -6  -6  -1   70.92    2.60
   6  -6   1   72.12    2.91
   6   6   1   69.38    2.67
  -6   6  -1   75.34    3.02
  -6   6  -1   72.92    2.81
  -6   6  -1   72.52    2.99
  -7  -6  -1   16.53    1.32
   7   6   1   17.18    1.37
  -7   6  -1   19.79    1.61
  -7   6  -1   18.45    1.47
  -7   6  -1   18.45    1.61
  -8  -6  -1   35.20    2.01
   8  -6   1   31.03    2.12
  -8   6  -1   35.32    2.31
   8   6   1   31.92    2.02
  -8   6  -1   33.80    2.22
  -8   6  -1   33.59    2.01
  -9  -6  -1    4.28    0.97
  -9  -6  -1    3.77    0.86
   9   6   1    2.23    0.76
  -9   6  -1    4.68    0.99
  -9   6  -1    2.26    0.82
  -9   6  -1    4.29    1.18
 -10  -6  -1    0.01    0.64
 -10  -6  -1    0.34    0.60
 -10   6  -1   -0.42    0.56
  10   6   1    0.95    0.67
 -10   6  -1    0.42    0.43
 -11  -6  -1    1.16    0.85
 -11  -6  -1    0.93    0.69
 -11   6  -1   -0.03    0.58
 -11   6  -1    0.16    0.67
 -11   6  -1    1.14    0.79
  11   6   1    0.82    0.84
  11  -7  -1    0.22    0.68
 -11  -7   1    2.48    0.80
  11   7  -1   -0.86    0.62
 -11   7   1    0.46    0.58
 -10  -7   1    1.82    0.78
 -10  -7   1   -0.22    0.46
  10  -7  -1    0.78    0.64
 -10   7   1    0.83    0.56
 -10   7   1    0.18    0.59
 -10   7   1   -0.06    0.45
   9  -7  -1    1.47    0.63
   9  -7  -1    0.63    0.80
  -9  -7   1    1.68    0.65
  -9  -7   1    1.36    0.57
  -9   7   1    1.17    0.67
  -9   7   1    1.62    0.72
   9   7  -1    0.91    0.49
  -9   7   1    2.23    0.76
   8  -7  -1    0.67    0.50
  -8  -7   1   -0.28    0.30
  -8  -7   1    0.20    0.39
   8  -7  -1   -0.34    0.33
   8  -7  -1    0.28    0.51
   8   7  -1   -0.35    0.36
  -8   7   1    0.98    0.57
  -8   7   1    0.34    0.50
   7  -7  -1    0.64    0.37
  -7  -7   1    1.27    0.42
   7  -7  -1    0.12    0.40
   7  -7  -1    1.15    0.49
  -7   7   1    0.38    0.42
   7   7  -1    0.45    0.39
  -7   7   1    0.42    0.43
  -7   7   1   -0.02    0.47
  -6  -7   1    4.74    0.68
  -6  -7   1    3.57    0.58
   6  -7  -1    4.78    0.89
   6  -7  -1    3.45    0.76
   6  -7  -1    4.70    0.90
  -6   7   1    4.05    0.87
   6   7  -1    4.25    0.68
  -6   7   1    4.32    0.84
  -6   7   1    2.39    0.66
   5  -7  -1    0.82    0.41
   5  -7  -1    0.93    0.45
  -5  -7   1    0.44    0.28
   5  -7  -1    0.82    0.32
  -5  -7   1    0.96    0.31
  -5   7   1    1.55    0.54
   5   7  -1    0.68    0.31
  -5   7   1    0.63    0.39
  -5   7   1    1.01    0.46
  -4  -7   1   14.26    0.69
   4  -7  -1   14.05    1.04
   4  -7  -1   13.58    1.04
   4  -7  -1   12.78    1.16
   4  -7  -1   13.99    1.00
  -4   7   1   13.70    1.06
   4   7  -1   13.61    0.79
  -4   7   1   15.22    1.09
  -4   7   1   13.55    1.10
   3  -7  -1   21.29    1.13
   3  -7  -1   20.04    1.23
   3  -7  -1   19.27    1.33
   3  -7  -1   23.52    1.44
   3  -7  -1   20.49    1.10
  -3  -7   1   23.92    1.50
  -3   7   1   23.65    1.21
  -3   7   1   23.27    1.23
   3   7  -1   22.13    0.83
  -3   7   1   20.78    1.27
   2  -7  -1    6.70    0.65
   2  -7  -1    7.13    0.92
  -2  -7   1    7.67    0.86
   2  -7  -1    6.82    0.72
   2  -7  -1    6.59    0.59
  -2   7   1    7.34    0.87
  -2   7   1    5.63    0.61
   2   7  -1    6.75    0.58
  -2   7   1    6.08    0.62
  -1  -7   1   53.24    2.05
   1  -7  -1   54.08    1.53
   1  -7  -1   52.46    1.51
   1  -7  -1   55.21    1.88
   1  -7  -1   52.71    1.55
   1  -7  -1   52.08    2.08
  -1   7   1   54.52    1.63
  -1   7   1   54.69    2.09
   1   7  -1   52.45    1.75
   1   7  -1   50.15    1.96
  -1   7   1   52.02    1.86
   0  -7  -1   76.77    2.64
   0  -7  -1   77.86    2.22
   0  -7  -1   76.33    1.80
   0  -7   1   76.49    2.47
   0  -7  -1   74.45    1.77
   0  -7  -1   76.23    1.76
   0   7   1   75.06    1.92
   0   7  -1   72.79    2.38
   0   7   1   76.32    2.72
   0   7  -1   74.61    1.75
   0   7  -1   72.56    2.30
   0   7  -1   74.79    1.75
   0   7   1   75.95    2.21
   1  -7   1    2.63    0.56
  -1  -7  -1    2.71    0.66
   1  -7   1    1.72    0.32
   1  -7   1    1.66    0.32
  -1  -7  -1    1.97    0.37
   1   7   1    1.90    0.34
   1   7   1    1.61    0.35
  -1   7  -1    1.56    0.41
  -1   7  -1    1.91    0.47
  -1   7  -1    1.82    0.36
  -1   7  -1    1.82    0.36
   2  -7   1   40.83    1.73
   2  -7   1   40.57    1.70
  -2  -7  -1   41.83    2.01
  -2  -7  -1   41.45    1.19
   2   7   1   39.30    1.22
  -2   7  -1   34.87    2.40
   2   7   1   39.93    1.34
  -2   7  -1   38.62    1.54
  -3  -7  -1   22.78    1.57
  -3  -7  -1   23.64    0.98
   3  -7   1   23.76    1.35
   3  -7   1   23.46    1.22
  -3   7  -1   22.65    1.26
  -3   7  -1   25.73    1.33
   3   7   1   22.65    1.09
  -3   7  -1   23.88    1.41
  -4  -7  -1    0.04    0.22
   4  -7   1    0.00    0.34
  -4  -7  -1   -0.02    0.20
   4  -7   1    0.02    0.25
   4   7   1    0.12    0.22
  -4   7  -1    0.12    0.30
  -4   7  -1   -0.10    0.26
  -4   7  -1   -0.37    0.23
  -5  -7  -1   -0.03    0.23
   5  -7   1   -0.07    0.26
  -5   7  -1    0.05    0.32
  -5   7  -1    0.12    0.34
  -5   7  -1    0.09    0.29
   5   7   1   -0.25    0.24
   6  -7   1    9.17    1.26
  -6  -7  -1    7.57    0.82
   6   7   1    6.14    0.93
  -6   7  -1    7.69    1.14
  -6   7  -1   10.44    1.31
  -6   7  -1    6.54    1.07
   7  -7   1    1.64    0.64
  -7  -7  -1    1.96    0.60
  -7  -7  -1    1.79    0.58
  -7   7  -1    1.29    0.63
  -7   7  -1    2.37    0.72
   7   7   1    1.02    0.57
  -7   7  -1    1.89    0.75
  -8  -7  -1    9.95    1.13
   8   7   1    8.44    1.24
  -8   7  -1    6.95    1.12
  -8   7  -1   10.97    1.62
  -8   7  -1    9.34    1.38
  -9  -7  -1    0.14    0.44
   9   7   1   -0.37    0.50
  -9   7  -1   -0.88    0.37
  -9   7  -1   -0.98    0.41
  -9   7  -1    0.48    0.60
 -10  -7  -1    3.59    0.93
 -10   7  -1    3.30    1.01
 -10   7  -1    2.88    0.82
 -10   7  -1    3.55    1.11
  10   7   1    2.26    0.79
 -11  -7  -1   -0.38    0.72
 -11   7  -1   -1.36    0.58
  11   7   1   -0.08    0.82
 -11   7  -1    0.18    0.58
 -11   7  -1    1.98    0.73
  11  -8  -1    0.69    0.82
 -11  -8   1    2.40    0.78
 -11   8   1    2.48    0.96
 -11   8   1    2.03    0.73
  11   8  -1    0.87    0.66
 -11   8   1    2.13    0.81
 -10  -8   1    0.69    0.52
  10  -8  -1    0.12    0.57
 -10   8   1    1.48    0.70
  10   8  -1    0.34    0.50
 -10   8   1    0.00    0.57
 -10   8   1   -0.17    0.52
  -9  -8   1    9.75    1.07
   9  -8  -1    8.39    1.38
  -9  -8   1    7.08    1.30
  -9   8   1    7.26    1.18
  -9   8   1    5.60    1.10
   9   8  -1    8.30    1.20
  -9   8   1    8.73    1.46
   8  -8  -1    0.09    0.43
  -8  -8   1   -0.02    0.56
  -8  -8   1    0.23    0.35
  -8   8   1   -0.81    0.42
  -8   8   1   -0.05    0.37
   8   8  -1   -0.55    0.24
  -8   8   1    0.82    0.48
   7  -8  -1   48.52    2.45
   7  -8  -1   48.23    2.41
   7  -8  -1   45.06    2.49
  -7  -8   1   49.17    1.97
  -7  -8   1   51.32    2.00
  -7   8   1   49.54    2.74
  -7   8   1   50.11    2.49
   7   8  -1   53.57    2.25
  -7   8   1   49.08    2.52
  -6  -8   1   12.68    0.88
   6  -8  -1   13.27    1.26
   6  -8  -1   12.33    1.15
  -6  -8   1   13.44    0.89
   6  -8  -1   10.92    1.10
  -6   8   1   11.88    1.19
  -6   8   1   12.67    1.22
   6   8  -1   12.83    0.99
  -6   8   1   13.61    1.27
  -5  -8   1    1.95    0.38
   5  -8  -1    1.18    0.49
   5  -8  -1    2.75    0.68
   5  -8  -1    1.22    0.53
   5  -8  -1    3.55    0.69
  -5   8   1    1.75    0.56
  -5   8   1    1.74    0.55
  -5   8   1    2.08    0.63
   4  -8  -1    1.39    0.42
   4  -8  -1    1.45    0.45
   4  -8  -1    1.52    0.50
   4   8  -1    1.07    0.26
  -4   8   1    0.63    0.38
  -4   8   1    2.05    0.52
  -4   8   1    0.92    0.48
   4   8  -1    1.73    0.35
   3  -8  -1   45.59    2.14
   3  -8  -1   46.20    1.93
   3  -8  -1   41.27    1.65
   3  -8  -1   42.16    1.65
  -3  -8   1   43.94    2.17
  -3   8   1   42.26    1.73
   3   8  -1   45.02    1.47
  -3   8   1   42.89    1.93
   3   8  -1   43.57    1.24
  -3   8   1   43.40    1.74
   2  -8  -1   -0.31    0.14
   2  -8  -1    0.14    0.21
  -2  -8   1   -0.09    0.26
   2  -8  -1   -0.23    0.18
   2  -8  -1   -0.25    0.18
   2  -8  -1    0.15    0.30
  -2   8   1   -0.12    0.20
  -2   8   1    0.50    0.35
   2   8  -1    0.14    0.24
   1  -8  -1    0.38    0.30
  -1  -8   1    0.43    0.34
   1  -8  -1   -0.11    0.29
   1  -8  -1    0.29    0.20
   1  -8  -1   -0.07    0.18
   1  -8  -1   -0.04    0.19
  -1   8   1    0.05    0.21
   1   8  -1    0.58    0.30
  -1   8   1    0.40    0.33
   0  -8  -1   39.97    1.09
   0  -8   1   39.99    1.79
   0  -8  -1   39.78    1.56
   0  -8  -1   42.18    1.96
   0   8  -1   38.82    1.12
   0   8   1   38.87    1.26
   0   8  -1   37.50    1.61
   0   8   1   41.74    1.59
   0   8  -1   38.37    1.12
   0   8  -1   40.17    1.73
   1  -8   1    5.98    0.46
   1  -8   1    5.87    0.90
  -1  -8  -1    5.86    0.33
   1  -8   1    5.16    0.45
  -1  -8  -1    5.85    0.97
  -1   8  -1    7.17    0.93
   1   8   1    5.52    0.57
  -1   8  -1    5.10    0.51
   1   8   1    5.80    0.48
  -1   8  -1    6.74    0.88
  -2  -8  -1    5.22    0.92
   2  -8   1    4.89    0.54
   2  -8   1    5.92    0.82
   2  -8   1    5.16    0.57
   2   8   1    6.00    0.51
  -2   8  -1    5.27    0.59
   2   8   1    5.23    0.50
  -2   8  -1    5.72    1.03
  -2   8  -1    5.77    1.01
   3  -8   1    2.17    0.68
  -3  -8  -1    1.81    0.32
   3  -8   1    1.26    0.40
  -3  -8  -1    2.43    0.36
  -3  -8  -1    1.56    0.53
   3   8   1    1.75    0.38
  -3   8  -1    1.69    0.46
  -3   8  -1    1.56    0.46
  -3   8  -1    1.51    0.47
   4  -8   1   -0.03    0.26
  -4  -8  -1    0.18    0.21
  -4  -8  -1    0.16    0.24
  -4  -8  -1    0.40    0.47
   4  -8   1    0.46    0.39
  -4   8  -1    0.48    0.34
  -4   8  -1   -0.01    0.26
   4   8   1    0.34    0.29
  -4   8  -1    0.00    0.31
  -5  -8  -1    5.46    0.70
  -5  -8  -1    5.14    0.67
   5  -8   1    5.57    0.96
   5  -8   1    4.91    0.83
  -5   8  -1    5.88    0.98
  -5   8  -1    4.72    0.87
  -5   8  -1    6.30    1.08
   6  -8   1    1.15    0.51
  -6  -8  -1    1.01    0.43
  -6  -8  -1    0.74    0.38
  -6   8  -1    1.72    0.62
  -6   8  -1    0.86    0.53
  -6   8  -1    1.28    0.56
   6   8   1    2.20    0.58
  -7  -8  -1    2.68    0.64
  -7   8  -1    0.88    0.59
   7   8   1    2.27    0.69
  -7   8  -1    2.03    0.71
  -8  -8  -1    2.53    0.66
  -8   8  -1    3.05    0.84
  -8   8  -1    3.03    1.31
   8   8   1    1.86    0.62
  -8   8  -1    2.42    0.76
  -9  -8  -1    1.32    0.57
  -9  -8  -1    0.39    0.50
   9   8   1    0.98    0.61
  -9   8  -1    1.86    0.68
  -9   8  -1    1.36    0.70
  -9   8  -1    1.65    0.82
 -10  -8  -1    1.25    0.67
 -10  -8  -1    0.60    0.58
 -10   8  -1    1.53    0.85
 -10   8  -1   -0.47    0.46
 -10   8  -1    0.54    0.64
 -11  -8  -1   -0.35    0.81
  11   8   1    1.17    0.86
 -11   8  -1   -1.35    0.50
 -11   8  -1   -0.35    0.62
 -11   8  -1    0.62    0.72
  11  -9  -1    2.67    1.01
 -11  -9   1    1.45    0.83
 -11   9   1    0.60    0.75
 -11   9   1    1.80    0.83
 -11   9   1    1.67    0.92
  11   9  -1   -0.08    0.74
 -10  -9   1    0.51    0.61
  10  -9  -1    1.17    0.72
 -10  -9   1    1.85    0.86
 -10   9   1    2.75    0.82
 -10   9   1    1.45    0.78
 -10   9   1    1.51    0.74
  10   9  -1    2.41    0.78
  -9  -9   1    0.36    0.48
  -9  -9   1    1.47    0.60
   9  -9  -1    2.70    0.94
  -9   9   1    0.47    0.52
  -9   9   1    2.07    0.70
   9   9  -1    1.53    0.63
  -9   9   1    1.07    0.68
  -8  -9   1    0.44    0.38
   8  -9  -1    1.54    1.11
  -8  -9   1    0.41    0.40
  -8   9   1    0.43    0.51
   8   9  -1   -0.32    0.35
  -8   9   1   -0.14    0.44
  -7  -9   1    0.96    0.38
   7  -9  -1    0.78    0.51
  -7  -9   1    0.27    0.31
   7  -9  -1    1.65    0.65
   7  -9  -1    0.75    0.50
  -7   9   1    1.39    0.59
  -7   9   1    0.90    0.54
  -7   9   1    0.23    0.48
   7   9  -1    0.54    0.45
   6  -9  -1    4.63    0.95
  -6  -9   1    5.28    0.60
   6  -9  -1    6.30    1.06
   6  -9  -1    6.82    1.13
   6   9  -1    5.49    0.80
  -6   9   1    5.94    1.01
  -6   9   1    6.61    1.03
  -6   9   1    5.95    1.03
   5  -9  -1   68.49    2.63
   5  -9  -1   70.84    2.84
   5  -9  -1   72.87    3.10
   5  -9  -1   69.44    2.74
  -5   9   1   70.37    2.87
  -5   9   1   69.92    2.73
   5   9  -1   69.08    2.20
  -5   9   1   69.70    2.74
  -4  -9   1    3.84    0.88
   4  -9  -1    3.99    0.81
   4  -9  -1    4.02    0.71
   4  -9  -1    5.19    0.88
   4  -9  -1    3.51    0.66
  -4   9   1    4.49    0.76
  -4   9   1    4.63    0.78
   4   9  -1    3.94    0.49
   4   9  -1    4.57    0.52
  -4   9   1    4.58    0.85
   3  -9  -1   26.30    1.52
   3  -9  -1   25.50    1.27
  -3  -9   1   27.55    1.79
  -3   9   1   28.96    1.61
   3   9  -1   28.21    1.18
  -3   9   1   27.16    1.36
  -3   9   1   27.57    1.39
   2  -9  -1    4.06    0.54
   2  -9  -1    4.06    0.65
   2  -9  -1    3.83    0.52
  -2  -9   1    4.18    0.86
   2  -9  -1    2.91    0.67
   2  -9  -1    4.30    0.48
  -2   9   1    3.42    0.55
  -2   9   1    2.75    0.54
   2   9  -1    3.85    0.58
   1  -9  -1   11.88    0.66
   1  -9  -1   11.87    0.65
  -1  -9   1   12.47    1.08
   1  -9  -1   11.42    1.09
   1  -9  -1   12.79    0.93
   1  -9  -1   13.08    0.66
   1   9  -1   12.69    0.91
   0  -9  -1  126.89    4.27
   0  -9  -1  126.62    4.00
   0  -9  -1  128.55    2.66
   0  -9   1  125.32    4.27
   0   9   1  129.60    3.45
   0   9  -1  119.96    2.74
   0   9  -1  128.08    3.70
   0   9  -1  125.98    3.00
   0   9   1  127.62    2.96
  -1  -9  -1   15.69    1.35
   1  -9   1   14.85    0.69
   1  -9   1   14.83    0.68
  -1   9  -1   12.90    0.76
   1   9   1   13.45    0.70
  -1   9  -1   12.31    0.74
  -1   9  -1   14.15    2.05
   1   9   1   13.63    0.87
  -2  -9  -1   22.38    1.61
   2  -9   1   21.95    1.07
   2  -9   1   22.61    1.40
   2  -9   1   22.69    1.07
  -2   9  -1   23.05    1.16
  -2   9  -1   23.99    1.44
  -2   9  -1   24.30    1.17
   2   9   1   22.68    0.97
   2   9   1   23.87    1.04
   3  -9   1    3.86    0.77
  -3  -9  -1    3.95    0.94
  -3  -9  -1    3.01    0.34
   3  -9   1    3.38    0.59
   3  -9   1    2.19    0.51
  -3   9  -1    3.11    0.71
  -3   9  -1    2.56    0.58
   3   9   1    3.62    0.52
  -3   9  -1    3.16    0.59
   3   9   1    2.92    0.38
  -4  -9  -1    0.24    0.21
  -4  -9  -1    0.19    0.22
   4  -9   1    0.64    0.33
  -4  -9  -1    0.38    0.54
  -4   9  -1    0.13    0.34
  -4   9  -1    0.58    0.37
  -4   9  -1    0.24    0.33
   5  -9   1    0.57    0.37
   5  -9   1    1.16    0.52
  -5  -9  -1    0.31    0.30
  -5  -9  -1    1.00    0.37
   5   9   1    1.35    0.44
  -5   9  -1    1.05    0.47
  -5   9  -1    1.33    0.51
  -5   9  -1    0.23    0.36
  -6  -9  -1   21.23    1.23
  -6  -9  -1   19.00    1.18
   6  -9   1   23.29    1.74
   6  -9   1   16.33    1.37
  -6   9  -1   21.11    1.61
   6   9   1   22.10    1.43
  -6   9  -1   20.17    1.57
  -6   9  -1   19.48    1.58
  -7  -9  -1   25.41    1.50
  -7  -9  -1   25.62    1.48
  -7   9  -1   26.63    1.94
  -7   9  -1   28.20    1.94
   7   9   1   28.25    1.75
  -7   9  -1   21.73    1.81
  -8  -9  -1    1.21    0.49
  -8   9  -1    1.41    0.74
   8   9   1    0.74    0.58
  -8   9  -1    0.82    0.66
  -8   9  -1    1.11    0.63
  -9  -9  -1   -0.17    0.51
  -9  -9  -1    0.42    0.48
   9   9   1    0.73    0.59
  -9   9  -1    0.48    0.61
  -9   9  -1    0.21    0.49
  -9   9  -1    0.77    0.65
 -10  -9  -1   -0.35    0.58
 -10   9  -1    0.87    0.59
  10   9   1    1.16    1.21
 -10   9  -1    1.17    0.74
  11 -10  -1    1.44    0.94
 -11 -10   1   -1.88    1.09
 -11  10   1    0.34    0.72
  11  10  -1   -0.38    0.66
 -11  10   1    0.15    0.75
 -11  10   1    0.61    0.58
  10 -10  -1   -0.85    0.59
 -10  10   1   -0.09    0.52
 -10  10   1   -0.36    0.56
  10  10  -1    0.94    0.67
 -10  10   1    0.47    0.63
   9 -10  -1    2.01    0.82
   9 -10  -1    3.21    1.15
  -9 -10   1    3.30    1.12
   9  10  -1    2.26    0.73
  -9  10   1    1.59    0.65
  -9  10   1    2.33    0.76
  -9  10   1    3.47    1.11
  -8 -10   1    0.08    0.38
   8 -10  -1    0.31    0.56
   8 -10  -1    0.49    0.55
   8  10  -1   -0.30    0.35
  -8  10   1    0.54    0.55
  -8  10   1   -0.42    0.40
  -8  10   1   -0.01    0.48
  -7 -10   1   14.58    0.96
   7 -10  -1   15.71    1.49
   7 -10  -1   18.52    1.79
  -7  10   1   15.59    1.47
   7  10  -1   15.00    1.15
  -7  10   1   15.23    1.49
  -7  10   1   13.59    1.43
   6 -10  -1   -0.33    0.32
   6 -10  -1    0.56    0.42
   6 -10  -1    0.28    0.45
   6 -10  -1   -0.15    0.37
   6  10  -1    0.25    0.32
  -6  10   1    0.18    0.38
  -6  10   1    0.24    0.32
  -6  10   1    0.21    0.36
   5 -10  -1   50.33    2.26
   5 -10  -1   44.43    2.09
   5 -10  -1   47.53    2.56
   5 -10  -1   47.15    2.33
  -5  10   1   48.89    2.24
  -5  10   1   49.36    2.26
  -5  10   1   48.01    2.41
   5  10  -1   49.25    1.73
  -4 -10   1   12.72    1.36
   4 -10  -1   12.32    0.98
   4 -10  -1   13.09    1.16
   4 -10  -1   12.49    1.26
  -4  10   1   12.41    1.20
   4  10  -1   11.93    0.76
   4  10  -1   11.53    0.69
  -4  10   1   10.62    0.99
  -4  10   1   11.96    1.04
  -3 -10   1    5.01    1.02
   3 -10  -1    3.81    0.77
   3 -10  -1    4.18    0.62
   3 -10  -1    3.99    0.76
  -3  10   1    3.48    0.65
   3  10  -1    4.23    0.58
  -3  10   1    2.41    0.59
  -3  10   1    4.53    0.71
   2 -10  -1    7.56    0.80
  -2 -10   1    9.06    1.29
   2 -10  -1    8.42    0.64
   2 -10  -1    8.75    1.21
   2 -10  -1    7.88    0.65
   2  10  -1    7.73    0.72
  -2  10   1    6.17    0.82
   1 -10  -1    6.96    0.91
   1 -10  -1    6.66    0.50
   1 -10  -1    6.21    0.94
  -1 -10   1    5.67    0.92
   1  10  -1    5.59    0.79
  -1  10   1    6.74    0.88
   0 -10  -1    0.20    0.36
   0 -10  -1    0.53    0.30
   0 -10   1    0.04    0.27
   0  10   1   -0.18    0.17
   0  10  -1    0.56    0.63
   0  10  -1    0.26    0.19
   0  10   1   -0.05    0.26
   1 -10   1   14.34    1.18
  -1 -10  -1   13.34    1.26
  -1  10  -1   14.82    1.15
   1  10   1   14.84    0.95
  -1  10  -1   14.93    0.81
  -1  10  -1   12.48    0.76
   1  10   1   13.99    0.72
   2 -10   1    1.41    0.36
   2 -10   1    1.34    0.36
  -2 -10  -1    1.14    0.51
   2 -10   1    2.16    0.88
  -2  10  -1    1.44    0.49
  -2  10  -1    1.78    0.44
  -2  10  -1    0.92    0.38
   2  10   1    1.14    0.30
   2  10   1    1.60    0.38
  -3 -10  -1   10.27    1.46
   3 -10   1   12.30    0.91
   3  10   1   11.63    0.69
   3  10   1   13.69    0.82
  -3  10  -1   11.57    0.97
  -3  10  -1   12.86    0.99
  -3  10  -1   11.42    1.12
  -4 -10  -1    8.64    1.33
   4 -10   1   10.18    0.94
  -4 -10  -1    9.92    0.61
   4 -10   1   10.11    1.11
  -4  10  -1   10.48    1.01
  -4  10  -1   11.24    1.36
   4  10   1    8.36    0.77
  -4  10  -1    8.08    0.91
   5 -10   1    1.79    0.52
   5 -10   1    0.40    0.40
  -5  10  -1    1.53    0.59
  -5  10  -1    1.41    0.57
  -5  10  -1    1.57    0.57
   6 -10   1   15.66    1.48
  -6 -10  -1   14.48    0.99
  -6 -10  -1   13.72    0.97
   6  10   1   14.43    1.18
  -6  10  -1   11.21    1.28
  -6  10  -1   13.46    1.30
  -6  10  -1   15.00    1.47
  -7 -10  -1    0.84    0.43
   7 -10   1    0.69    0.62
  -7 -10  -1    1.67    0.52
  -7  10  -1    1.64    0.67
  -7  10  -1    1.79    0.99
  -7  10  -1    0.57    0.53
   7  10   1    2.24    0.66
  -8 -10  -1   -0.10    0.37
  -8 -10  -1    0.08    0.39
   8 -10   1   -0.15    0.47
  -8  10  -1    0.89    0.61
   8  10   1    0.14    0.47
  -8  10  -1    0.43    0.47
  -8  10  -1    0.06    0.50
  -9 -10  -1    1.73    0.65
   9 -10   1   -0.19    0.63
  -9 -10  -1    0.32    0.49
   9 -10   1    0.83    0.66
  -9  10  -1   -0.54    0.43
  -9  10  -1   -0.81    0.37
   9  10   1   -0.77    0.51
  -9  10  -1    0.05    0.59
  10 -10   1    1.97    0.79
 -10 -10  -1    1.44    0.85
 -10 -10  -1    2.89    0.93
 -10  10  -1    3.37    1.07
 -10  10  -1    2.24    0.82
 -10  10  -1    2.91    1.04
  10  10   1    2.74    0.91
  10 -11  -1    0.48    0.71
  10 -11  -1    0.12    0.66
 -10  11   1   -0.30    0.41
  10  11  -1    0.43    0.56
 -10  11   1    0.27    0.67
 -10  11   1    0.79    0.65
   9 -11  -1   -0.37    0.55
   9 -11  -1   -0.01    0.51
  -9  11   1    0.27    0.49
   9  11  -1    0.65    0.74
  -9  11   1   -0.32    0.40
   8 -11  -1    1.99    0.81
   8 -11  -1    0.05    0.49
  -8  11   1    1.72    0.67
  -8  11   1    1.11    0.61
   8  11  -1    1.20    0.54
  -8  11   1    0.85    0.64
   7 -11  -1    0.19    0.48
   7 -11  -1    0.47    0.59
  -7  11   1    0.36    0.46
   7  11  -1    0.60    0.41
  -7  11   1    1.08    0.66
  -7  11   1    1.42    0.81
   6 -11  -1    2.28    0.72
   6 -11  -1    3.38    1.00
  -6  11   1    3.26    0.82
  -6  11   1    2.05    0.69
  -6  11   1    2.88    0.77
   6  11  -1    3.25    0.61
   5 -11  -1    3.64    0.90
   5 -11  -1    4.22    0.78
   5 -11  -1    4.70    0.87
   5 -11  -1    4.03    0.78
  -5  11   1    5.43    0.96
   5  11  -1    5.28    0.65
  -5  11   1    3.36    0.77
   4 -11  -1   11.47    1.28
   4 -11  -1   10.15    1.08
   4 -11  -1    9.87    0.92
  -4 -11   1   10.19    1.53
  -4  11   1    9.34    0.97
  -4  11   1   10.45    0.99
  -4  11   1   11.62    1.43
   4  11  -1   10.01    0.76
  -3 -11   1   30.62    2.02
   3 -11  -1   30.96    1.76
   3 -11  -1   26.40    1.32
   3 -11  -1   28.91    1.42
   3 -11  -1   28.26    1.87
  -3  11   1   28.34    1.47
  -3  11   1   29.91    1.78
   3  11  -1   29.89    1.37
   2 -11  -1   -0.32    0.29
  -2 -11   1   -0.01    0.36
   2 -11  -1    0.20    0.31
   2 -11  -1    0.08    0.21
   2 -11  -1   -0.26    0.22
   2  11  -1    0.26    0.28
  -2  11   1    0.01    0.28
   1 -11  -1   24.27    1.70
  -1 -11   1   24.92    1.67
   1 -11  -1   21.81    1.42
   1  11  -1   23.10    2.10
  -1  11   1   21.80    1.40
   0 -11  -1    3.17    0.82
   0 -11   1    3.19    0.73
   0  11   1    3.59    0.48
   0  11   1    3.52    0.81
   0  11  -1    3.22    0.66
  -1 -11  -1    2.58    0.70
   1 -11   1    4.79    0.97
   1  11   1    4.44    0.45
  -1  11  -1    3.98    0.53
   1  11   1    4.23    0.65
  -1  11  -1    3.74    0.74
  -1  11  -1    4.85    0.59
   2 -11   1   13.75    1.27
  -2 -11  -1   11.92    1.33
   2 -11   1   13.33    0.81
   2 -11   1   12.86    0.80
  -2  11  -1   11.82    0.87
   2  11   1   12.90    0.88
  -2  11  -1   14.62    1.25
  -2  11  -1   11.66    0.88
   3 -11   1   16.62    1.38
  -3 -11  -1   15.34    1.54
   3 -11   1   15.87    1.02
   3 -11   1   16.00    1.05
   3  11   1   16.24    0.90
  -3  11  -1   20.72    1.26
  -3  11  -1   16.55    1.39
   3  11   1   18.35    0.95
  -3  11  -1   16.60    1.16
   4 -11   1   22.42    1.63
  -4 -11  -1   23.33    1.96
   4 -11   1   22.48    1.65
  -4  11  -1   19.42    1.38
  -4  11  -1   18.80    1.36
  -4  11  -1   19.88    1.57
   4  11   1   21.23    1.14
   5 -11   1   12.89    1.15
   5 -11   1   11.45    1.14
   5 -11   1   11.02    1.26
  -5  11  -1   12.89    1.23
  -5  11  -1   11.77    1.20
   5  11   1   10.69    0.95
  -5  11  -1   10.16    1.34
   6 -11   1    1.07    0.60
  -6 -11  -1    1.12    0.38
  -6 -11  -1    0.21    0.32
   6 -11   1    0.68    0.48
  -6  11  -1    1.10    0.56
  -6  11  -1    1.78    0.88
   7 -11   1    4.10    1.07
  -7 -11  -1    3.38    0.62
  -7 -11  -1    3.32    0.65
   7 -11   1    3.79    0.93
  -7  11  -1    4.63    1.05
  -7  11  -1    2.50    0.78
   7  11   1    3.10    0.77
  -7  11  -1    2.11    0.80
   8 -11   1    0.73    0.67
  -8 -11  -1   -0.02    0.45
  -8 -11  -1   -0.70    0.36
  -8  11  -1    0.12    0.59
  -8  11  -1    0.69    0.67
  -8  11  -1   -0.29    0.46
   8  11   1    0.57    0.52
  -9 -11  -1    4.23    0.86
  -9 -11  -1    5.51    0.91
   9 -11   1    4.80    1.19
   9 -11   1    4.79    1.32
   9  11   1    2.83    0.86
  -9  11  -1    4.92    1.20
  -9  11  -1    2.51    0.86
  -9  11  -1    4.23    1.16
 -10 -11  -1    0.24    0.77
 -10 -11  -1    0.96    0.75
  10 -11   1    0.52    0.75
  10 -11   1    0.61    0.69
  10  11   1    1.03    0.79
 -10  11  -1    1.92    0.79
 -10  11  -1    0.70    0.87
 -10  11  -1    1.69    0.79
  10 -12  -1    5.26    1.31
  10 -12  -1    3.77    1.16
  10  12  -1    8.69    1.47
 -10  12   1    8.18    1.45
 -10  12   1    8.02    1.48
 -10  12   1    4.08    1.12
   9 -12  -1    6.06    1.32
   9 -12  -1    4.50    1.32
  -9  12   1    5.51    1.28
   9  12  -1    3.34    0.95
  -9  12   1    5.33    1.27
  -9  12   1    6.34    1.34
   8 -12  -1    0.27    0.68
   8 -12  -1    2.01    0.85
  -8  12   1    0.05    0.53
   8  12  -1    1.31    0.54
  -8  12   1    2.06    0.81
   7 -12  -1    0.25    0.57
   7 -12  -1    0.18    0.44
  -7  12   1    1.29    0.53
   7  12  -1   -0.38    0.35
  -7  12   1    1.32    0.59
  -7  12   1    0.40    0.44
   6 -12  -1    3.43    0.82
   6 -12  -1    3.37    1.00
  -6  12   1    3.39    0.94
  -6  12   1    5.40    1.01
   6  12  -1    4.61    0.67
   5 -12  -1    1.50    0.99
   5 -12  -1    1.11    0.47
   5 -12  -1    1.98    0.69
   5  12  -1    1.04    0.35
  -5  12   1    0.65    0.46
  -5  12   1    0.71    0.47
  -5  12   1    1.40    0.60
  -4 -12   1   18.34    1.74
   4 -12  -1   16.29    1.57
   4 -12  -1   14.14    1.11
   4 -12  -1   15.28    1.41
  -4  12   1   18.16    1.54
   4  12  -1   17.45    1.03
  -4  12   1   18.05    1.29
   3 -12  -1   10.99    0.87
   3 -12  -1    8.68    0.84
   3 -12  -1   10.27    1.39
  -3 -12   1   12.16    1.71
   3 -12  -1   12.05    1.47
  -3  12   1   12.31    1.50
   3  12  -1   11.83    0.92
   2 -12  -1    4.49    0.55
  -2 -12   1    4.23    0.94
   2 -12  -1    2.96    0.83
   2 -12  -1    4.29    0.50
   2 -12  -1    4.09    0.77
  -2  12   1    4.22    0.80
  -1 -12   1   30.00    1.96
   1 -12  -1   33.55    2.10
  -1  12   1   33.92    1.80
   1  12  -1   32.82    1.69
   0 -12   1   -0.30    0.29
   0 -12  -1   -0.36    0.34
   0  12   1    0.36    0.24
   0  12   1    0.23    0.34
   0  12  -1    0.63    0.44
   1 -12   1    2.04    0.66
  -1 -12  -1    0.34    0.44
   1  12   1    0.70    0.27
  -1  12  -1    1.40    0.37
  -1  12  -1    0.75    0.31
  -1  12  -1    0.39    0.40
   1  12   1    0.70    0.60
   2 -12   1   54.07    1.75
   2 -12   1   56.43    1.81
  -2 -12  -1   56.51    2.94
   2 -12   1   54.62    2.61
  -2  12  -1   55.00    2.00
   2  12   1   57.16    2.04
  -2  12  -1   57.55    2.04
  -2  12  -1   55.26    2.55
  -3 -12  -1   16.77    1.69
   3 -12   1   20.56    1.43
   3 -12   1   18.60    1.14
   3 -12   1   19.55    1.56
  -3  12  -1   20.17    1.57
  -3  12  -1   19.20    1.24
  -3  12  -1   18.18    1.21
   3  12   1   18.91    1.03
   3  12   1   18.82    0.97
   4 -12   1    5.21    0.78
   4 -12   1    5.33    1.01
  -4 -12  -1    5.23    1.33
  -4  12  -1    4.42    0.81
   4  12   1    4.26    0.63
  -4  12  -1    6.72    1.11
  -4  12  -1    5.58    0.89
   5 -12   1    3.61    0.95
   5 -12   1    4.85    0.97
  -5  12  -1    2.47    0.68
   5  12   1    3.41    0.62
  -5  12  -1    2.34    0.74
  -5  12  -1    2.72    0.70
   6 -12   1    5.00    1.00
   6 -12   1    5.00    1.07
  -6 -12  -1    5.44    0.55
   6  12   1    5.83    0.90
  -6  12  -1    6.06    1.02
  -6  12  -1    5.86    1.06
  -6  12  -1    6.44    1.14
   7 -12   1    0.14    0.53
  -7 -12  -1   -0.15    0.37
  -7 -12  -1    0.14    0.32
  -7  12  -1   -0.13    0.39
  -7  12  -1    0.25    0.46
  -7  12  -1    0.89    0.56
   8 -12   1    3.34    0.92
  -8 -12  -1    1.97    0.59
  -8  12  -1    1.58    0.89
   8  12   1    3.06    0.77
  -8  12  -1    0.90    0.70
  -8  12  -1    2.42    0.77
   9 -12   1    0.40    0.76
   9 -12   1    0.45    0.59
  -9 -12  -1    0.01    0.57
  -9 -12  -1    1.49    0.71
  -9  12  -1   -0.34    0.54
  -9  12  -1    1.37    0.79
  -9  12  -1    0.75    0.70
   9  12   1    0.73    0.56
   9 -13  -1   -0.73    0.46
   9 -13  -1    0.80    0.71
  -9  13   1   -0.50    0.53
   9  13  -1    0.68    0.53
  -9  13   1    0.55    0.67
   8 -13  -1    0.64    0.63
   8 -13  -1    0.76    0.66
  -8  13   1    1.54    0.69
  -8  13   1    0.82    0.60
  -8  13   1    0.50    0.55
   8  13  -1    1.74    0.55
   7 -13  -1   -0.32    0.79
   7 -13  -1   -0.66    0.36
  -7  13   1   -0.30    0.34
  -7  13   1    0.12    0.45
   7  13  -1   -0.33    0.32
  -7  13   1    0.20    0.48
   6 -13  -1   -0.25    0.42
   6 -13  -1   -0.07    0.34
  -6  13   1    0.63    0.52
   6  13  -1    0.48    0.34
  -6  13   1    0.60    0.46
  -6  13   1   -0.74    0.38
   5 -13  -1    0.44    0.54
   5 -13  -1   -0.30    0.23
   4 -13  -1    0.54    0.52
   4 -13  -1    0.00    0.42
   4 -13  -1    0.78    0.39
  -4 -13   1    0.27    0.59
  -4  13   1   -0.18    0.29
   4  13  -1    0.34    0.31
  -4  13   1   -0.22    0.31
   3 -13  -1    1.35    0.63
   3 -13  -1    1.37    0.43
   3 -13  -1    2.78    0.52
  -3 -13   1    1.18    0.64
  -3  13   1    1.95    0.67
   3  13  -1    1.88    0.61
   2 -13  -1    8.89    0.68
   2 -13  -1    9.61    0.66
   2 -13  -1   11.60    1.60
  -2 -13   1   10.04    1.45
   2  13  -1    8.34    0.88
  -2  13   1    9.25    1.19
  -1 -13   1   14.77    1.46
   1 -13  -1   13.96    1.46
  -1  13   1   13.79    1.23
   1  13  -1   14.37    1.19
   0 -13  -1    6.60    1.31
   0 -13   1    4.18    1.03
   0  13  -1    3.65    0.76
   0  13   1    4.12    0.78
   1 -13   1   16.58    1.50
  -1 -13  -1   20.52    1.76
  -1  13  -1   17.14    0.94
  -1  13  -1   15.37    1.35
   1  13   1   18.71    1.26
  -2 -13  -1   16.15    1.66
   2 -13   1   13.01    1.34
   2 -13   1   15.17    0.81
   2  13   1   14.09    1.03
  -2  13  -1   13.66    0.99
  -2  13  -1   14.25    1.35
  -2  13  -1   13.03    0.96
   3 -13   1   12.26    1.34
  -3 -13  -1   12.69    1.77
   3 -13   1   13.50    0.96
  -3  13  -1   14.82    1.41
  -3  13  -1   12.17    1.04
  -3  13  -1   12.92    1.06
   3  13   1   13.70    0.94
   3  13   1   13.81    0.83
  -4 -13  -1    7.79    1.58
   4 -13   1    8.59    1.41
   4 -13   1    7.06    1.02
   4 -13   1    7.26    0.97
  -4  13  -1    4.89    0.92
  -4  13  -1    7.12    1.02
   4  13   1    7.52    0.72
  -4  13  -1    7.00    1.01
   5 -13   1   26.56    2.01
  -5  13  -1   23.92    1.67
   5  13   1   25.87    1.39
  -5  13  -1   25.21    1.70
  -5  13  -1   26.42    1.98
   6 -13   1    0.25    0.44
   6 -13   1   -0.50    0.33
  -6  13  -1    0.84    0.43
   6  13   1   -0.23    0.32
  -6  13  -1    0.61    0.44
  -6  13  -1   -0.05    0.36
   7 -13   1    1.03    0.71
   7 -13   1    0.48    0.62
  -7 -13  -1    0.86    0.38
   7  13   1   -0.05    0.45
  -7  13  -1    2.75    0.89
  -7  13  -1    0.76    0.59
  -7  13  -1   -0.21    0.44
   8 -13   1   -0.12    0.58
   8 -13   1    0.13    0.57
  -8 -13  -1    1.34    0.50
  -8  13  -1    0.99    0.55
   8  13   1    1.35    0.55
  -8  13  -1    0.26    0.57
  -8  13  -1    0.93    0.67
  -9 -13  -1    0.89    0.67
   9 -13   1    0.04    0.50
  -9  13  -1    0.81    0.56
   9  13   1   -0.29    0.49
  -9  13  -1    0.85    0.79
   9 -14  -1    0.33    0.68
   9 -14  -1   -0.18    0.66
   9  14  -1   -0.03    0.58
  -9  14   1    0.41    0.55
  -9  14   1    0.45    0.69
   8 -14  -1    1.20    0.73
   8 -14  -1    1.07    0.84
  -8  14   1    1.03    0.66
   8  14  -1    0.33    0.46
  -8  14   1    1.21    0.64
  -8  14   1    1.97    0.74
   7 -14  -1    2.04    0.69
  -7  14   1    2.02    0.68
  -7  14   1    2.08    0.88
   7  14  -1    3.61    0.68
   6 -14  -1    1.57    0.75
  -6  14   1    1.34    0.60
  -6  14   1    0.76    0.53
   5 -14  -1    7.61    1.35
  -5  14   1    8.85    1.49
   5  14  -1    6.89    0.68
  -5  14   1    8.52    1.20
  -4 -14   1    0.05    0.52
   4 -14  -1    0.49    0.53
   4 -14  -1    0.39    0.33
   4 -14  -1    0.18    0.30
  -4  14   1    0.25    0.51
   4  14  -1    0.02    0.30
   3 -14  -1    6.85    1.33
   3 -14  -1    6.82    0.69
  -3 -14   1    4.10    1.04
   3 -14  -1    7.25    0.72
   3  14  -1    7.78    0.86
  -3  14   1    6.03    1.03
   2 -14  -1    3.72    1.02
  -2 -14   1    3.21    0.95
  -2  14   1    1.91    0.65
   2  14  -1    1.95    0.59
   1 -14  -1    8.35    1.44
   1  14  -1    9.63    1.22
  -1  14   1    8.49    1.16
   0 -14   1   44.39    2.55
   0 -14  -1   47.74    2.79
   0  14   1   45.93    2.20
   0  14  -1   47.21    2.32
  -1 -14  -1    3.01    0.98
   1 -14   1    1.80    0.77
   1  14   1    2.46    0.65
  -1  14  -1    3.07    0.75
  -2 -14  -1    0.45    0.55
   2 -14   1    1.36    0.72
  -2  14  -1    0.77    0.39
   2  14   1    0.48    0.36
  -2  14  -1    0.67    0.36
  -2  14  -1    0.46    0.42
   3 -14   1    4.08    0.61
  -3 -14  -1    4.83    1.22
   3 -14   1    3.46    0.95
   3 -14   1    3.96    0.61
  -3  14  -1    4.60    0.76
  -3  14  -1    4.18    0.76
  -3  14  -1    2.45    0.76
   4 -14   1    7.92    0.87
  -4 -14  -1    8.72    1.80
   4 -14   1   10.71    1.58
  -4  14  -1    7.95    1.10
  -4  14  -1    8.58    1.15
  -4  14  -1   10.12    1.59
   5 -14   1    4.75    1.07
   5 -14   1    4.43    1.01
  -5 -14  -1    4.36    1.26
  -5  14  -1    4.91    1.07
   5  14   1    5.17    0.73
  -5  14  -1    4.98    0.95
  -5  14  -1    5.69    1.00
   6 -14   1    6.05    1.24
  -6  14  -1    5.95    1.08
  -6  14  -1    7.65    1.39
   6  14   1    8.40    0.90
  -6  14  -1    5.65    1.06
   7 -14   1   -0.16    0.48
   7 -14   1    0.23    0.68
   7  14   1    0.05    0.43
  -7  14  -1   -0.39    0.41
  -7  14  -1    0.00    0.50
  -7  14  -1    0.49    0.46
   8 -14   1    0.27    0.67
   8 -14   1    0.67    0.71
   8  14   1    0.58    0.53
  -8  14  -1   -0.45    0.63
  -8  14  -1   -0.61    0.56
  -8  14  -1   -0.13    0.51
   8 -15  -1   10.47    1.64
   8 -15  -1   12.53    2.07
  -8  15   1    5.82    1.28
  -8  15   1    5.90    1.26
   8  15  -1    9.03    0.96
   7 -15  -1    0.04    0.43
   7 -15  -1    0.08    0.66
  -7  15   1    0.21    0.64
  -7  15   1   -0.12    0.42
   7  15  -1    0.47    0.49
   6 -15  -1    0.93    0.78
  -6  15   1    0.53    0.56
  -6  15   1   -0.38    0.47
   5 -15  -1    1.46    0.51
   5 -15  -1    1.46    0.82
   5  15  -1    1.14    0.36
  -5  15   1    0.17    0.51
  -4 -15   1    0.88    0.76
   4 -15  -1    0.41    0.33
   4 -15  -1    0.63    0.66
   4  15  -1   -0.23    0.27
   3 -15  -1   12.55    0.92
   3 -15  -1   12.56    1.84
  -3 -15   1   15.76    2.24
   3 -15  -1   14.24    0.92
  -3  15   1   14.51    1.52
   3  15  -1   15.85    1.18
   2 -15  -1    5.83    1.18
  -2 -15   1    6.00    1.24
  -2  15   1    6.02    1.11
   2  15  -1    6.66    0.98
  -1 -15   1    0.72    0.59
   1 -15  -1    2.21    0.85
  -1  15   1    0.72    0.58
   1  15  -1    0.63    0.44
   0 -15   1   -0.13    0.40
   0 -15  -1    0.42    0.58
   0  15   1   -0.16    0.32
   0  15  -1    0.38    0.45
  -1 -15  -1    2.13    0.88
   1 -15   1    1.62    0.77
   1  15   1    2.96    0.74
  -1  15  -1    1.64    0.59
   2 -15   1    0.41    0.57
  -2 -15  -1    1.35    0.81
   2  15   1    0.77    0.41
  -2  15  -1    1.31    0.60
   3 -15   1    0.24    0.57
   3 -15   1    0.48    0.31
   3  15   1    0.23    0.30
  -3  15  -1    0.58    0.44
  -3  15  -1    1.05    0.53
  -3  15  -1    0.48    0.36
   4 -15   1    2.03    0.83
  -4 -15  -1   -0.30    0.52
   4 -15   1    0.75    0.41
  -4  15  -1    0.35    0.45
  -4  15  -1    0.48    0.40
   4  15   1    0.30    0.31
  -4  15  -1    0.53    0.49
   5 -15   1    0.51    0.58
  -5 -15  -1   -0.37    0.51
   5 -15   1    1.25    0.55
  -5  15  -1    0.45    0.43
  -5  15  -1    0.68    0.54
  -5  15  -1    0.85    0.47
   6 -15   1    6.40    1.48
   6  15   1    5.41    0.81
  -6  15  -1    4.41    1.01
  -6  15  -1    6.85    1.18
  -6  15  -1    5.52    1.29
   7 -15   1    2.74    0.84
   7 -15   1    2.21    0.91
   7  15   1    3.21    0.68
  -7  15  -1    4.11    0.93
  -7  15  -1    1.92    0.79
  -7  15  -1    4.02    1.08
   8 -15   1    2.11    0.90
   8 -15   1    1.48    0.84
  -8  15  -1    0.90    0.69
   8  15   1   -0.29    0.55
  -8  15  -1    1.16    0.74
  -8  15  -1    1.02    0.74
   7 -16  -1    5.12    1.29
  -7  16   1    2.58    0.97
  -7  16   1    1.97    0.80
   6 -16  -1   11.11    1.22
   6 -16  -1    9.40    1.72
  -6  16   1    8.20    1.44
   5 -16  -1   -0.10    0.42
  -5  16   1    0.63    0.57
   5  16  -1    0.24    0.35
   4 -16  -1    2.55    0.98
  -4 -16   1    4.41    1.24
   4 -16  -1    4.08    0.75
   4  16  -1    3.49    0.68
  -4  16   1    4.91    1.09
   3 -16  -1    2.16    1.00
  -3  16   1    0.75    0.55
   3  16  -1    0.53    0.34
  -2 -16   1    1.17    0.70
   2  16  -1   -0.09    0.35
  -2  16   1    0.29    0.42
   1 -16  -1   -0.38    0.40
  -1 -16   1   -0.06    0.40
   1  16  -1   -0.19    0.34
  -1  16   1   -0.15    0.30
   0 -16  -1    1.89    0.83
   0 -16   1    3.33    1.00
   0  16   1    2.58    0.69
   0  16  -1    2.17    0.69
   1 -16   1    4.21    1.08
  -1 -16  -1    1.81    0.94
   1  16   1    3.90    0.81
  -1  16  -1    3.79    0.89
  -2 -16  -1    0.96    0.74
   2 -16   1    0.93    0.69
   2  16   1    0.84    0.47
  -2  16  -1    1.44    0.69
   3 -16   1    0.12    0.50
  -3 -16  -1    1.09    0.77
   3  16   1    0.90    0.41
  -3  16  -1    0.50    0.36
  -3  16  -1    0.14    0.42
   4 -16   1   -0.43    0.35
   4 -16   1   -0.58    0.39
  -4 -16  -1   -0.17    0.49
  -4  16  -1   -0.67    0.30
  -4  16  -1   -0.11    0.38
  -4  16  -1   -0.18    0.38
   4  16   1    0.31    0.41
   5 -16   1    0.71    0.43
   5 -16   1   -0.26    0.78
  -5  16  -1   -0.68    0.46
  -5  16  -1    0.27    0.37
  -5  16  -1    0.61    0.51
   6 -16   1   -0.03    0.47
   6 -16   1   -0.45    0.68
   6  16   1   -0.47    0.46
  -6  16  -1   -0.19    0.45
  -6  16  -1    1.40    0.65
  -6  16  -1    0.14    0.45
   7 -16   1    0.30    0.61
   7 -16   1    1.13    0.67
  -7  16  -1    1.80    1.39
   7  16   1   -0.39    0.61
   7 -17  -1    0.94    0.88
   7 -17  -1    1.25    0.73
  -7  17   1    1.35    0.79
   6 -17  -1    1.79    0.91
   6 -17  -1    2.08    0.79
  -6  17   1    1.51    0.90
   5 -17  -1    0.03    0.48
   5 -17  -1    0.01    0.61
   5  17  -1    0.47    0.35
  -5  17   1    0.16    0.45
   4 -17  -1    0.62    0.68
  -4 -17   1    0.64    0.79
   4 -17  -1    0.61    0.41
  -4  17   1   -0.34    0.34
   4  17  -1    0.52    0.38
   3 -17  -1    1.56    1.34
  -3 -17   1    3.11    1.24
   3  17  -1    1.20    0.48
  -3  17   1    1.37    0.70
  -2 -17   1    3.88    1.01
   2 -17  -1    5.17    1.24
   2  17  -1    4.77    0.89
  -2  17   1    5.68    1.06
  -1 -17   1    0.59    0.73
   1 -17  -1    0.69    0.82
   1  17  -1    0.65    0.50
  -1  17   1   -0.19    0.43
   0 -17   1    0.52    0.60
   0 -17  -1    2.07    1.15
   0  17   1   -0.01    0.44
   0  17  -1   -0.22    0.30
   1 -17   1    1.77    0.80
  -1 -17  -1    2.39    0.96
  -1  17  -1    3.23    0.81
   1  17   1    2.13    0.66
  -2 -17  -1    5.23    1.29
   2 -17   1    5.88    1.24
  -2  17  -1    5.11    1.02
   2  17   1    5.89    0.89
  -3 -17  -1    1.35    0.82
   3 -17   1    1.75    0.81
   3  17   1    1.00    0.42
  -3  17  -1    0.78    0.56
  -4 -17  -1    0.19    0.70
   4 -17   1    0.03    0.47
   4  17   1    0.00    0.37
  -4  17  -1    0.50    0.45
  -4  17  -1   -0.45    0.44
   5 -17   1    4.08    1.15
   5 -17   1    5.21    0.91
  -5 -17  -1    5.29    1.47
  -5  17  -1    5.78    1.03
  -5  17  -1    5.63    1.19
   6 -17   1   11.23    1.31
   6 -17   1   10.69    1.76
  -6  17  -1    9.70    1.87
  -6  17  -1   11.86    1.37
  -6  17  -1   14.98    2.59
   6 -18  -1   10.91    1.95
   6 -18  -1   10.62    1.32
  -6  18   1   13.48    2.10
   5 -18  -1    2.01    0.65
   5 -18  -1    1.84    1.01
   5  18  -1    1.88    0.53
  -5  18   1    1.95    0.86
  -4 -18   1   -0.92    0.33
   4 -18  -1   -0.28    0.48
  -4  18   1    0.61    0.51
   4  18  -1   -0.44    0.31
  -3 -18   1    1.29    0.86
   3 -18  -1   -0.33    0.51
  -3  18   1   -0.74    0.49
   3  18  -1    0.83    0.39
  -2 -18   1   -0.35    0.51
   2 -18  -1    1.19    0.75
  -2  18   1    0.64    0.55
   1 -18  -1    1.32    0.76
  -1 -18   1   -0.42    0.57
   1  18  -1    0.22    0.42
  -1  18   1    0.70    0.52
   0 -18  -1   -0.73    0.37
   0  18  -1    0.51    0.48
   0  18   1    0.24    0.64
   1 -18   1   11.26    2.02
  -1 -18  -1   13.61    2.04
  -1  18  -1   12.61    1.42
   1  18   1   11.53    1.23
  -2 -18  -1    3.96    1.21
   2 -18   1    6.43    1.76
  -2  18  -1    4.35    1.05
   2  18   1    5.39    0.89
  -3 -18  -1    4.53    1.35
   3 -18   1    4.46    1.26
  -3  18  -1    3.62    0.94
   3  18   1    3.01    0.69
  -4 -18  -1    9.50    1.99
   4 -18   1    7.68    1.48
  -4  18  -1    7.81    1.57
   4  18   1    5.84    0.77
  -5 -18  -1    2.03    1.00
   5 -18   1    1.23    0.83
  -5  18  -1    3.07    1.11
  -5  18  -1    1.36    0.74
   4 -19  -1   -0.95    0.58
  -4 -19   1    0.64    0.78
  -4  19   1    0.69    0.63
   4  19  -1    0.13    0.40
  -3 -19   1   -0.28    0.54
   3 -19  -1   -0.45    0.44
  -3  19   1    0.39    0.48
   3  19  -1    0.60    0.46
  -2 -19   1    0.76    0.81
   2 -19  -1    0.94    0.84
  -2  19   1    2.62    0.79
  -1 -19   1    0.71    0.69
   1 -19  -1    0.77    0.74
  -1  19   1    0.51    0.51
   1  19  -1    1.11    0.53
   0 -19   1    1.77    0.86
   0 -19  -1    2.77    1.04
   0  19   1    1.84    0.71
   0  19  -1    1.28    0.64
   1 -19   1    1.10    0.73
  -1 -19  -1   -0.56    0.50
  -1  19  -1   -0.42    0.47
  -2 -19  -1    1.40    0.84
   2 -19   1    0.43    0.68
  -2  19  -1    0.62    0.64
   2  19   1    1.41    0.62
   3 -19   1   -0.15    0.40
  -3 -19  -1   -0.08    0.64
   3  19   1   -0.29    0.32
  -3  19  -1    1.33    0.75
  -4 -19  -1    0.86    0.64
   4 -19   1    0.70    0.74
  -4  19  -1    0.48    0.87
   4  19   1    0.79    0.42
  -2 -20   1    6.97    1.51
   2 -20  -1    8.12    1.67
   2  20  -1    6.75    1.18
  -2  20   1    9.27    1.60
   1 -20  -1    0.07    0.56
  -1 -20   1   -0.59    0.55
  -1  20   1   -0.58    0.43
   1  20  -1    0.84    0.60
   0 -20  -1    2.20    0.92
   0 -20   1    2.00    1.02
   0  20   1    2.27    0.67
   0  20  -1    2.47    0.81
   1 -20   1    0.37    0.70
  -1 -20  -1    0.20    0.70
  -1  20  -1    0.35    0.54
   2 -20   1    1.69    0.89
  -2 -20  -1    3.68    1.15
   2  20   1    3.41    0.97
  -2  20  -1    3.28    0.99
 -12   0   2    0.68    0.52
 -12   0   2   -0.44    0.69
  12   0  -2    1.78    0.81
 -12   0   2    1.88    0.85
 -11   0   2    4.70    0.82
 -11   0   2    2.32    0.92
 -11   0   2    5.59    1.16
  11   0  -2    4.07    0.73
  10   0  -2    7.58    1.29
 -10   0   2    6.83    0.92
 -10   0   2    5.39    1.07
  10   0  -2    5.52    0.83
  -9   0   2    9.90    1.47
  -9   0   2   10.94    0.99
  -9   0   2   12.00    1.33
   9   0  -2   11.86    0.98
   9   0  -2   11.28    1.26
  -8   0   2    5.63    0.99
   8   0  -2    3.52    0.76
  -8   0   2    3.52    0.82
  -8   0   2    4.40    0.70
   8   0  -2    4.81    0.69
  -7   0   2    9.11    0.99
  -7   0   2    7.83    0.75
   7   0  -2    7.50    1.00
   7   0  -2    7.99    0.74
  -7   0   2    8.68    1.00
  -6   0   2  193.23    4.93
  -6   0   2  184.25    4.88
   6   0  -2  183.84    4.87
  -6   0   2  184.72    4.42
   6   0  -2  179.01    4.37
   5   0  -2  285.16    6.37
  -5   0   2  279.02    6.36
  -5   0   2  272.44    5.94
  -5   0   2  276.85    6.42
   5   0  -2  273.33    5.92
   5   0  -2  276.11    6.36
   4   0  -2  122.57    3.18
  -4   0   2  120.59    3.16
   4   0  -2  120.12    3.17
   4   0  -2  114.24    2.88
  -4   0   2  122.61    2.95
  -4   0   2  116.22    3.13
   3   0  -2  579.52   11.18
   3   0  -2  590.84   11.26
   3   0  -2  575.01   11.17
  -3   0   2  571.14   11.00
   3   0  -2  563.90   10.99
  -3   0   2  570.54   11.18
   2   0  -2   81.12    2.06
  -2   0   2   78.16    1.96
   2   0  -2   79.54    1.97
  -2   0   2   80.18    2.03
   2   0  -2   78.57    2.01
   1   0  -2   18.38    0.71
  -1   0   2   18.72    0.71
   1   0  -2   17.96    0.73
  -1   0   2   17.74    0.72
   0   0   2    1.12    0.18
   0   0   2    0.92    0.25
   0   0  -2    0.98    0.24
   0   0  -2    1.26    0.18
   1   0   2    8.47    0.62
  -1   0  -2    7.25    0.58
   1   0   2    8.55    0.48
   2   0   2   43.58    1.56
  -2   0  -2   42.81    1.55
   3   0   2    3.75    0.60
  -3   0  -2    4.42    0.46
  -3   0  -2    5.16    0.72
   4   0   2   68.67    2.53
  -4   0  -2   74.20    2.55
  -4   0  -2   71.14    2.12
   5   0   2    7.24    1.00
  -5   0  -2    6.96    0.64
  -5   0  -2    8.59    0.96
   6   0   2   35.06    1.95
  -6   0  -2   35.68    1.46
  -6   0  -2   38.79    2.06
  -6   0  -2   37.70    2.01
  -7   0  -2   36.53    1.57
  -7   0  -2   39.28    2.20
   7   0   2   37.43    2.15
  -7   0  -2   42.02    2.75
  -8   0  -2    1.47    0.68
  -8   0  -2    0.80    0.61
  -8   0  -2    1.12    0.63
   8   0   2    2.00    0.72
  -9   0  -2    6.52    0.84
  -9   0  -2    6.33    1.17
   9   0   2    6.05    1.13
  -9   0  -2    6.08    1.22
 -10   0  -2    3.86    0.71
  10   0   2    4.45    1.22
 -10   0  -2    5.81    1.27
 -10   0  -2    5.07    1.28
 -11   0  -2    0.52    0.86
 -11   0  -2    0.69    0.51
 -11   0  -2    1.23    0.82
  12  -1  -2    1.84    0.79
 -12  -1   2    1.31    0.86
 -12  -1   2    1.20    0.82
 -12  -1   2    1.30    0.50
 -12   1   2    2.58    0.99
 -12   1   2    0.34    0.72
  12   1  -2   -0.32    0.62
 -12   1   2    2.10    0.62
 -11  -1   2    0.28    0.42
 -11  -1   2   -0.12    0.61
  11  -1  -2   -0.75    0.41
 -11  -1   2   -2.16    0.67
  11  -1  -2   -0.50    0.43
 -11   1   2   -0.19    0.63
 -11   1   2    1.35    0.72
  11   1  -2   -0.34    0.32
 -11   1   2    0.71    0.43
  11   1  -2   -0.71    0.55
  10  -1  -2    6.48    0.90
 -10  -1   2    7.55    1.27
 -10  -1   2    6.45    1.23
 -10  -1   2    6.95    0.90
  10  -1  -2    4.43    1.04
 -10   1   2    8.24    1.39
  10   1  -2    6.18    0.83
  10   1  -2    7.96    1.37
 -10   1   2    4.20    0.79
 -10   1   2    5.18    1.12
   9  -1  -2    2.52    0.79
  -9  -1   2    1.65    0.72
  -9  -1   2    1.60    0.46
   9  -1  -2    1.40    0.45
  -9  -1   2    1.17    1.13
  -9   1   2    1.91    0.73
  -9   1   2    1.43    0.52
  -9   1   2    0.46    0.77
   9   1  -2    0.89    0.36
   8  -1  -2    0.70    0.49
  -8  -1   2    0.96    0.56
  -8  -1   2    1.62    0.47
   8  -1  -2    1.74    0.47
  -8  -1   2    1.43    0.56
   8   1  -2    2.15    0.81
  -8   1   2    1.11    0.60
  -8   1   2    2.09    0.71
   8   1  -2    0.88    0.62
  -8   1   2    1.61    0.52
   7  -1  -2    6.86    0.73
   7  -1  -2    6.20    1.01
  -7  -1   2    7.75    1.05
   7  -1  -2    6.47    0.98
  -7  -1   2    7.65    1.02
  -7  -1   2    7.09    0.69
   7   1  -2    6.82    0.65
   7   1  -2    5.98    0.88
  -7   1   2    6.35    1.04
  -7   1   2    4.80    0.86
  -6  -1   2    5.33    0.79
   6  -1  -2    4.95    0.65
  -6  -1   2    5.00    0.78
   6  -1  -2    4.20    0.72
   6  -1  -2    4.61    0.73
  -6  -1   2    5.15    0.58
  -6   1   2    5.75    0.84
   6   1  -2    5.69    0.84
   6   1  -2    5.79    0.82
  -6   1   2    5.17    0.73
  -6   1   2    5.17    0.80
   6   1  -2    5.68    0.59
   5  -1  -2   12.34    0.88
  -5  -1   2   12.37    0.93
  -5  -1   2   12.25    0.96
   5  -1  -2   11.97    0.94
  -5  -1   2   10.65    0.73
   5  -1  -2    9.72    0.89
  -5   1   2   13.39    1.03
   5   1  -2   11.66    0.91
  -5   1   2   11.89    0.85
   5   1  -2   11.78    0.92
   5   1  -2   12.42    0.76
   4  -1  -2   31.40    1.45
   4  -1  -2   34.14    1.44
   4  -1  -2   33.87    1.30
  -4  -1   2   34.01    1.38
  -4  -1   2   34.98    1.22
   4  -1  -2   31.38    1.40
  -4  -1   2   34.32    1.39
   4   1  -2   33.65    1.38
  -4   1   2   31.76    1.29
   4   1  -2   35.04    1.21
  -4   1   2   32.61    1.44
  -4   1   2   34.36    1.44
   4   1  -2   33.26    1.38
  -3  -1   2   15.95    0.75
   3  -1  -2   16.01    0.82
   3  -1  -2   15.52    0.86
  -3  -1   2   17.14    0.82
   3  -1  -2   17.23    0.91
   3  -1  -2   15.82    0.90
  -3   1   2   15.68    0.87
   3   1  -2   14.15    0.83
  -3   1   2   15.26    0.81
   3   1  -2   15.62    0.82
   3   1  -2   16.19    0.76
  -3   1   2   16.23    0.85
   3   1  -2   15.80    0.83
   2  -1  -2   38.49    1.22
   2  -1  -2   37.22    1.23
   2  -1  -2   37.90    1.28
  -2  -1   2   36.61    1.15
  -2  -1   2   38.34    1.18
   2   1  -2   38.40    1.16
   2   1  -2   37.77    1.20
  -2   1   2   36.37    1.21
  -1  -1   2  273.12    5.49
   1  -1  -2  293.00    5.63
   1  -1  -2  281.87    5.54
  -1   1   2  285.15    5.62
   1   1  -2  269.29    5.49
  -1   1   2  280.36    5.54
   0  -1  -2  348.35    6.79
   0  -1  -2  343.79    6.66
   0  -1   2  338.60    6.74
   0  -1  -2  359.50    6.64
   0   1   2  348.49    6.80
   0   1   2  342.08    6.63
   0   1   2  345.35    6.65
   0   1  -2  334.86    6.73
   1  -1   2  160.52    3.69
  -1  -1  -2  170.56    3.63
  -1  -1  -2  167.10    3.70
   1   1   2  166.75    3.71
   1   1   2  167.01    3.61
  -1   1  -2  163.34    3.70
  -2  -1  -2   17.13    0.94
   2  -1   2   17.44    0.95
  -2   1  -2   17.67    0.97
   2   1   2   18.61    0.97
   2   1   2   16.90    0.91
  -3  -1  -2    5.36    0.73
   3  -1   2    4.53    0.61
  -3  -1  -2    5.17    0.43
  -3   1  -2    5.37    0.54
   3   1   2    4.96    0.69
  -3   1  -2    4.84    0.69
   3   1   2    4.53    0.64
  -4  -1  -2    1.20    0.30
   4  -1   2    0.95    0.44
  -4   1  -2    0.85    0.40
   4   1   2    0.41    0.36
  -4   1  -2    0.76    0.31
  -5  -1  -2   22.10    0.96
  -5  -1  -2   21.81    1.42
  -5   1  -2   21.34    1.13
   5   1   2   22.38    1.41
  -6  -1  -2   28.42    1.77
  -6  -1  -2   31.25    1.25
  -6  -1  -2   35.27    1.92
   6  -1   2   30.57    1.84
  -6   1  -2   31.40    1.87
  -6   1  -2   31.63    1.43
  -6   1  -2   31.45    1.87
   6   1   2   29.76    2.04
  -7  -1  -2   12.10    1.25
   7  -1   2    9.76    1.14
  -7  -1  -2    9.37    0.75
  -7   1  -2    9.75    0.93
   7   1   2   11.38    1.21
  -7   1  -2   12.05    1.60
  -7   1  -2    9.39    1.28
  -8  -1  -2    7.11    0.72
   8  -1   2    7.11    1.19
  -8  -1  -2    5.81    1.07
  -8  -1  -2    7.10    1.24
  -8   1  -2    6.37    1.14
  -8   1  -2    7.81    0.87
  -8   1  -2    7.07    1.28
   8   1   2    6.68    1.13
  -9  -1  -2   -0.03    0.28
  -9  -1  -2    0.14    0.53
  -9  -1  -2    0.01    0.48
   9  -1   2    0.90    0.67
   9   1   2   -0.76    0.46
  -9   1  -2   -1.07    0.37
  -9   1  -2   -0.09    0.37
  -9   1  -2   -0.90    0.42
  10  -1   2    3.18    1.27
 -10  -1  -2    0.95    0.71
 -10  -1  -2    2.42    0.95
 -10  -1  -2    2.04    0.52
 -10   1  -2    0.91    0.71
 -10   1  -2    2.42    0.61
  10   1   2    0.89    0.78
 -10   1  -2    3.67    1.08
 -11  -1  -2    0.91    0.79
 -11  -1  -2    1.76    0.92
 -11   1  -2    1.03    0.59
 -11   1  -2    1.12    0.93
 -11   1  -2    1.30    0.77
 -12  -2   2    1.40    0.86
  12  -2  -2    0.98    0.64
 -12  -2   2   -0.85    0.62
 -12  -2   2    1.15    0.43
 -12   2   2   -0.88    0.57
  12   2  -2    2.63    1.00
 -12   2   2   -0.48    0.62
 -12   2   2    0.32    0.48
 -11  -2   2    0.45    0.69
  11  -2  -2    1.43    0.76
  11  -2  -2    1.63    0.50
 -11  -2   2   -0.16    0.64
 -11  -2   2    1.36    0.49
  11  -2  -2    2.67    0.85
 -11   2   2    0.49    0.70
  11   2  -2    1.68    0.78
 -11   2   2    1.25    0.48
 -11   2   2    2.21    0.87
 -10  -2   2    0.10    0.52
 -10  -2   2    0.37    0.49
  10  -2  -2    0.61    0.63
  10  -2  -2    1.01    0.44
 -10  -2   2    0.95    0.40
  10   2  -2    0.26    0.37
 -10   2   2    0.08    0.52
 -10   2   2   -0.28    0.44
 -10   2   2   -0.31    0.33
  10   2  -2   -0.05    0.43
   9  -2  -2   23.22    1.49
  -9  -2   2   24.19    1.78
  -9  -2   2   22.62    1.23
  -9  -2   2   23.73    1.72
   9  -2  -2   20.58    1.71
  -9   2   2   23.92    1.87
  -9   2   2   24.12    1.55
   9   2  -2   23.55    1.75
  -9   2   2   20.44    1.75
  -8  -2   2   21.85    1.56
   8  -2  -2   22.84    1.66
  -8  -2   2   24.01    1.21
   8  -2  -2   24.73    1.43
  -8  -2   2   23.73    1.64
  -8   2   2   23.70    1.73
   8   2  -2   25.29    1.22
  -8   2   2   21.57    2.05
  -8   2   2   23.51    1.44
   8   2  -2   23.39    1.61
   7  -2  -2   61.21    2.26
  -7  -2   2   59.40    2.44
  -7  -2   2   64.45    2.52
  -7  -2   2   60.49    1.96
   7  -2  -2   54.67    3.21
   7  -2  -2   58.55    2.55
  -7   2   2   60.11    2.59
  -7   2   2   60.08    2.59
   7   2  -2   58.71    2.71
   7   2  -2   60.42    2.48
  -6  -2   2   99.19    2.63
   6  -2  -2   96.14    3.55
   6  -2  -2  101.63    3.16
   6  -2  -2   97.56    3.23
  -6  -2   2   99.09    3.11
  -6  -2   2   99.04    3.10
   6   2  -2  105.60    3.22
  -6   2   2   96.76    2.93
   6   2  -2   99.19    3.14
   6   2  -2   97.38    2.60
  -6   2   2  102.77    3.33
   5  -2  -2   52.74    1.86
   5  -2  -2   52.05    2.03
   5  -2  -2   49.82    2.02
  -5  -2   2   50.02    1.60
  -5  -2   2   49.21    1.87
  -5  -2   2   50.90    1.90
   5   2  -2   51.82    1.93
   5   2  -2   54.05    1.95
  -5   2   2   54.05    2.09
   5   2  -2   52.36    1.61
  -5   2   2   52.72    2.08
  -5   2   2   50.31    1.85
  -4  -2   2   98.89    2.64
   4  -2  -2   95.88    2.86
   4  -2  -2   98.30    2.67
   4  -2  -2   98.95    2.83
   4  -2  -2   98.29    2.81
  -4  -2   2   94.84    2.40
   4   2  -2   93.57    2.39
   4   2  -2   99.36    2.68
   4   2  -2   97.23    2.66
  -4   2   2   97.57    2.81
  -4   2   2   98.76    2.84
  -4   2   2   96.59    2.66
   3  -2  -2  154.58    3.63
   3  -2  -2  157.16    3.56
  -3  -2   2  143.39    3.28
   3  -2  -2  151.05    3.67
   3  -2  -2  151.33    3.60
   3   2  -2  160.22    3.57
  -3   2   2  153.51    3.64
   3   2  -2  150.03    3.29
   3   2  -2  142.31    3.38
  -3   2   2  149.17    3.52
  -3   2   2  144.48    3.53
   3   2  -2  149.43    3.46
   2  -2  -2  268.86    5.46
   2  -2  -2  262.81    5.49
  -2  -2   2  263.83    5.22
   2  -2  -2  259.62    5.41
   2   2  -2  258.44    5.27
   2   2  -2  255.82    5.25
  -2   2   2  264.61    5.48
  -2   2   2  265.02    5.43
  -1  -2   2  395.62    7.82
   1  -2  -2  425.63    8.08
   1  -2  -2  409.26    7.99
   1  -2  -2  428.63    8.16
   1   2  -2  397.40    7.86
  -1   2   2  406.31    8.00
  -1   2   2  424.33    8.08
  -1   2   2  431.83    8.16
   0  -2  -2  345.54    6.85
   0  -2   2  328.38    6.68
   0  -2  -2  351.34    6.62
   0   2   2  343.51    6.62
   0   2   2  346.63    6.80
   0   2   2  347.04    6.83
  -1  -2  -2   33.91    1.21
  -1  -2  -2   33.18    0.94
   1  -2   2   34.26    1.21
  -1  -2  -2   34.02    1.27
   1   2   2   36.17    1.27
  -1   2  -2   33.59    1.22
   1   2   2   34.46    1.23
   2  -2   2    4.28    0.56
  -2  -2  -2    5.57    0.72
  -2  -2  -2    4.17    0.54
   2   2   2    4.26    0.58
  -2   2  -2    5.58    0.67
   2   2   2    4.75    0.55
  -3  -2  -2   10.38    0.84
   3  -2   2   11.95    1.07
  -3   2  -2   10.64    0.76
  -3   2  -2   11.54    0.91
   3   2   2   10.45    0.86
   3   2   2   10.52    0.85
  -4  -2  -2   71.93    2.46
  -4  -2  -2   68.12    1.72
   4  -2   2   70.14    2.51
  -4   2  -2   72.70    2.56
  -4   2  -2   70.61    2.23
   4   2   2   67.22    2.42
  -5  -2  -2    7.70    0.51
   5  -2   2    8.81    1.16
  -5  -2  -2    8.67    0.93
   5   2   2    9.29    0.94
  -5   2  -2    9.49    0.82
  -6  -2  -2    0.97    0.50
  -6  -2  -2    0.98    0.27
   6  -2   2    1.43    0.56
  -6  -2  -2    0.33    0.41
  -6   2  -2    0.25    0.39
   6   2   2    0.80    0.41
  -6   2  -2    0.63    0.50
  -7  -2  -2    0.70    0.50
  -7  -2  -2    1.52    0.63
  -7  -2  -2    0.86    0.30
   7  -2   2    0.67    0.51
  -7   2  -2    0.42    0.52
  -7   2  -2    0.78    0.56
  -7   2  -2    1.25    0.48
   7   2   2    0.68    0.45
  -8  -2  -2    0.79    0.56
   8  -2   2    1.99    0.71
  -8  -2  -2    1.10    0.35
  -8  -2  -2    1.66    0.69
  -8   2  -2    1.26    0.49
   8   2   2    2.22    0.67
  -8   2  -2    2.78    0.88
  -8   2  -2    3.61    0.94
  -9  -2  -2    0.32    0.61
  -9  -2  -2    0.02    0.42
   9  -2   2   -0.15    0.50
  -9   2  -2   -0.46    0.33
   9   2   2    0.01    0.56
  -9   2  -2   -0.13    0.60
  -9   2  -2   -0.34    0.45
 -10  -2  -2    3.57    1.02
 -10  -2  -2    2.86    0.95
 -10   2  -2    4.17    1.10
  10   2   2    2.49    0.99
 -10   2  -2    3.08    0.71
 -10   2  -2    2.61    0.96
 -11  -2  -2   -0.66    0.80
 -11  -2  -2    0.62    0.75
  11   2   2    0.46    0.90
 -11   2  -2    0.57    0.55
 -11   2  -2    1.11    0.85
 -11   2  -2    0.45    0.75
 -12  -3   2    0.62    0.71
 -12  -3   2   -0.13    0.71
  12  -3  -2    0.26    0.62
 -12   3   2    1.06    0.71
 -12   3   2    0.58    0.68
  12   3  -2    0.05    0.87
 -12   3   2    0.37    0.67
 -11  -3   2    0.96    0.78
  11  -3  -2    1.20    0.62
  11  -3  -2    1.10    0.64
 -11  -3   2    2.75    0.93
 -11  -3   2    2.10    0.86
 -11   3   2    1.36    0.76
  11   3  -2    2.85    0.97
 -11   3   2    0.61    0.52
 -11   3   2    0.50    0.63
  10  -3  -2   -0.13    0.37
  10  -3  -2    0.91    0.60
 -10  -3   2    0.11    0.48
  10  -3  -2   -0.01    0.44
 -10  -3   2   -0.46    0.52
 -10  -3   2   -0.01    0.31
 -10   3   2   -0.69    0.45
  10   3  -2    0.57    0.51
  10   3  -2    0.26    0.30
 -10   3   2   -0.25    0.50
 -10   3   2   -0.35    0.30
   9  -3  -2    9.51    1.05
  -9  -3   2    9.08    1.24
  -9  -3   2   11.97    1.23
   9  -3  -2   13.36    1.39
  -9  -3   2    9.92    0.82
  -9   3   2    8.47    1.37
   9   3  -2   10.91    1.81
  -9   3   2    8.05    1.32
  -9   3   2   10.24    1.10
   9   3  -2    9.30    0.76
  -8  -3   2    5.86    0.94
   8  -3  -2    5.75    1.03
  -8  -3   2    6.57    1.00
   8  -3  -2    5.83    0.89
  -8  -3   2    7.89    0.70
   8   3  -2    7.27    1.23
  -8   3   2    6.48    0.91
  -8   3   2    6.69    1.13
   8   3  -2    8.06    0.80
  -8   3   2    7.22    1.15
   7  -3  -2    3.75    0.78
  -7  -3   2    5.47    0.84
  -7  -3   2    3.74    0.68
   7  -3  -2    3.31    0.66
  -7  -3   2    3.23    0.51
   7  -3  -2    5.77    0.97
  -7   3   2    3.82    0.71
  -7   3   2    5.61    0.99
  -7   3   2    3.23    1.01
   7   3  -2    3.44    0.72
   7   3  -2    4.79    0.49
   6  -3  -2   25.93    1.50
   6  -3  -2   24.64    1.36
  -6  -3   2   25.63    1.39
   6  -3  -2   23.61    1.47
  -6  -3   2   26.05    1.08
   6   3  -2   23.70    1.03
   6   3  -2   24.94    1.40
  -6   3   2   27.23    1.61
   6   3  -2   26.14    1.42
  -6   3   2   26.48    1.42
  -6   3   2   25.22    2.46
  -5  -3   2    0.79    0.37
   5  -3  -2    1.90    0.52
   5  -3  -2    2.45    0.58
   5  -3  -2    1.60    0.44
   5  -3  -2    0.95    0.32
  -5  -3   2    1.63    0.32
  -5   3   2    2.79    0.62
  -5   3   2    1.70    0.46
   5   3  -2    1.16    0.40
  -5   3   2    2.08    0.56
   5   3  -2    1.20    0.29
   5   3  -2    1.85    0.46
   4  -3  -2   61.57    2.17
   4  -3  -2   60.55    2.02
   4  -3  -2   62.11    2.12
   4  -3  -2   61.00    2.17
   4   3  -2   61.64    1.94
   4   3  -2   63.53    1.71
  -4   3   2   61.16    2.13
  -4   3   2   62.64    2.15
  -4   3   2   60.14    2.04
   3  -3  -2   60.07    1.88
   3  -3  -2   60.47    1.91
   3  -3  -2   60.96    1.93
   3  -3  -2   59.59    1.95
  -3   3   2   55.70    1.83
   3   3  -2   58.53    1.67
   3   3  -2   58.00    1.61
  -3   3   2   57.82    1.87
  -3   3   2   60.93    1.93
   3   3  -2   60.47    1.72
   2  -3  -2  126.61    3.03
   2  -3  -2  122.47    2.96
   2  -3  -2  125.10    2.96
   2  -3  -2  121.57    2.97
  -2   3   2  123.28    2.99
  -2   3   2  125.99    3.01
   2   3  -2  124.76    3.05
   2   3  -2  120.46    2.70
   1  -3  -2  146.40    3.26
   1  -3  -2  154.64    3.52
   1  -3  -2  144.08    3.53
  -1  -3   2  139.22    2.96
  -1  -3   2  146.85    3.19
  -1   3   2  150.29    3.31
   1   3  -2  139.76    3.01
  -1   3   2  150.87    3.46
   1   3  -2  147.60    3.19
  -1   3   2  147.54    3.27
   0  -3  -2  102.46    2.61
   0  -3  -2   96.99    2.26
   0  -3   2   97.76    2.27
   0  -3   2   99.66    2.14
   0   3  -2   95.55    2.28
   0   3   2  101.43    2.29
   0   3   2   97.85    2.39
   0   3   2  102.25    2.58
   0   3  -2   98.64    2.12
   1  -3   2  203.81    4.48
  -1  -3  -2  213.43    4.77
   1  -3   2  197.64    4.23
  -1  -3  -2  207.28    4.13
  -1  -3  -2  220.56    4.51
  -1   3  -2  206.24    4.51
   1   3   2  214.12    4.74
   1   3   2  215.05    4.53
   1   3   2  206.73    4.13
   2  -3   2  155.37    3.84
  -2  -3  -2  165.17    4.12
  -2  -3  -2  168.14    3.83
  -2   3  -2  155.38    3.86
   2   3   2  160.01    3.83
   2   3   2  164.13    4.12
  -3  -3  -2   60.86    2.04
   3  -3   2   60.15    2.11
   3   3   2   58.62    2.21
  -3   3  -2   59.63    2.14
   3   3   2   59.23    2.05
  -3   3  -2   58.58    1.99
   4  -3   2   44.29    1.95
  -4  -3  -2   45.51    1.88
   4   3   2   46.33    1.91
  -4   3  -2   46.20    2.01
  -4   3  -2   47.33    1.82
   5  -3   2    0.71    0.38
  -5  -3  -2    0.36    0.37
   5   3   2    0.64    0.38
  -6  -3  -2    4.32    0.81
   6  -3   2    2.48    0.67
  -6  -3  -2    2.39    0.70
  -6   3  -2    3.70    0.85
  -6   3  -2    3.52    0.65
  -6   3  -2    3.02    0.74
   6   3   2    3.86    0.74
  -7  -3  -2    3.79    0.83
   7  -3   2    4.00    0.95
  -7  -3  -2    4.20    0.87
   7   3   2    4.00    0.85
  -7   3  -2    1.83    0.72
  -7   3  -2    3.77    0.84
  -7   3  -2    2.54    0.59
  -8  -3  -2    7.43    1.19
  -8  -3  -2    7.05    1.17
  -8   3  -2    5.80    1.12
  -8   3  -2    6.81    1.19
  -8   3  -2    7.15    1.00
   8   3   2    7.15    1.24
  -9  -3  -2    5.48    1.15
   9  -3   2    5.18    1.16
  -9   3  -2    5.11    1.07
  -9   3  -2    5.19    0.92
  -9   3  -2    5.44    1.10
   9   3   2    3.45    0.99
 -10  -3  -2    0.36    0.69
 -10  -3  -2    1.22    0.74
 -10   3  -2    0.61    0.45
 -10   3  -2    0.95    0.69
 -10   3  -2    0.57    0.58
  10   3   2    0.62    0.62
 -11  -3  -2    1.19    0.85
 -11  -3  -2    1.40    0.92
  11   3   2    3.20    1.28
 -11   3  -2    0.15    0.48
 -11   3  -2    1.29    0.80
  12  -4  -2   -0.90    0.50
 -12  -4   2   -0.04    0.70
 -12  -4   2    1.84    1.38
  12   4  -2   -0.43    0.77
 -12   4   2    0.21    0.65
 -12   4   2   -0.53    0.61
 -12   4   2   -0.36    0.50
 -11  -4   2    4.77    1.09
  11  -4  -2    0.70    0.65
 -11  -4   2    1.72    0.74
 -11   4   2    1.98    0.85
  11   4  -2   -0.18    0.64
 -11   4   2    1.80    0.80
 -11   4   2    1.47    0.64
 -10  -4   2    6.59    1.16
  10  -4  -2    5.40    0.93
  10  -4  -2    3.10    0.94
  10  -4  -2    6.17    1.22
 -10  -4   2    5.91    1.08
 -10   4   2    4.24    0.86
 -10   4   2    6.15    1.20
 -10   4   2    7.26    1.31
  10   4  -2    4.63    0.93
   9  -4  -2   -0.38    0.45
   9  -4  -2    0.12    0.47
  -9  -4   2    0.63    0.47
  -9  -4   2    0.36    0.53
   9  -4  -2   -0.19    0.34
   9   4  -2   -0.58    0.33
  -9   4   2   -0.65    0.36
   9   4  -2   -0.10    0.25
  -9   4   2   -0.31    0.31
  -9   4   2    0.38    0.54
  -8  -4   2   11.14    1.08
  -8  -4   2    9.52    1.09
   8  -4  -2   11.66    1.28
   8  -4  -2    8.27    1.29
  -8  -4   2   10.16    0.72
   8  -4  -2   10.66    1.04
  -8   4   2    8.11    1.17
  -8   4   2   11.12    1.14
   8   4  -2   10.23    0.70
  -8   4   2    8.04    1.22
   8   4  -2   10.24    1.13
   7  -4  -2   14.76    1.41
   7  -4  -2   10.13    1.08
  -7  -4   2   13.10    1.10
   7  -4  -2   12.27    1.05
   7   4  -2   13.24    1.12
  -7   4   2   13.86    1.27
   7   4  -2   12.33    0.71
  -7   4   2   12.12    1.09
  -7   4   2   12.35    1.27
   6  -4  -2    2.04    0.53
   6  -4  -2    1.99    0.59
  -6  -4   2    2.67    0.54
   6  -4  -2    3.02    0.66
   6  -4  -2    2.48    0.62
   6   4  -2    1.70    0.30
  -6   4   2    1.91    0.67
  -6   4   2    1.81    0.86
  -6   4   2    2.50    0.58
   6   4  -2    2.90    0.57
   5  -4  -2   48.49    1.99
   5  -4  -2   47.09    1.89
   5  -4  -2   48.66    2.00
   5  -4  -2   48.21    2.47
  -5  -4   2   42.61    1.76
  -5   4   2   49.08    2.03
   5   4  -2   48.43    1.80
  -5   4   2   48.07    2.30
  -5   4   2   49.47    2.06
   5   4  -2   47.51    1.91
   5   4  -2   44.87    1.42
  -4  -4   2   30.09    1.20
   4  -4  -2   32.19    1.48
   4  -4  -2   33.33    1.51
   4  -4  -2   32.12    1.42
   4  -4  -2   31.27    1.52
  -4   4   2   31.86    1.46
   4   4  -2   31.38    1.25
  -4   4   2   32.53    1.51
   4   4  -2   29.72    1.07
  -4   4   2   30.94    1.47
   4   4  -2   29.16    1.23
   3  -4  -2   10.36    0.77
   3  -4  -2   10.05    0.76
   3  -4  -2    9.38    0.79
   3   4  -2   10.05    0.61
   3   4  -2   10.21    0.60
  -3   4   2   11.06    0.76
  -3   4   2   10.70    0.80
   3   4  -2   10.44    0.83
  -3   4   2   10.52    0.80
   3   4  -2   10.31    0.63
   2  -4  -2   55.82    1.70
   2  -4  -2   57.56    1.71
   2  -4  -2   55.41    1.93
   2  -4  -2   53.00    1.73
   2  -4  -2   54.76    1.74
  -2   4   2   55.82    1.73
   2   4  -2   52.38    1.37
  -2   4   2   54.24    1.76
   2   4  -2   53.10    1.76
  -1  -4   2   37.37    1.26
   1  -4  -2   36.44    1.26
  -1  -4   2   34.60    0.89
   1  -4  -2   36.42    1.45
   1   4  -2   33.72    0.96
  -1   4   2   36.09    1.24
  -1   4   2   37.11    1.42
  -1   4   2   36.08    1.26
   1   4  -2   33.54    1.19
   0  -4  -2   49.81    1.42
   0  -4  -2   52.20    1.78
   0  -4   2   48.22    1.39
   0  -4   2   48.82    1.34
   0   4   2   48.59    1.41
   0   4   2   50.66    1.73
   0   4  -2   49.82    1.38
   0   4  -2   46.96    1.35
   0   4   2   51.05    1.51
  -1  -4  -2    6.95    0.43
  -1  -4  -2    7.96    0.73
   1  -4   2    6.32    0.48
   1  -4   2    6.25    0.53
   1   4   2    6.03    0.42
   1   4   2    7.55    0.59
  -1   4  -2    6.58    0.56
   2  -4   2    0.10    0.25
  -2  -4  -2    0.30    0.18
  -2  -4  -2    0.09    0.36
  -2   4  -2    0.27    0.30
   2   4   2    0.22    0.29
   2   4   2    0.02    0.24
  -2   4  -2    0.08    0.26
   3  -4   2   13.51    0.96
  -3  -4  -2   14.57    1.15
  -3  -4  -2   13.31    0.91
  -3   4  -2   12.77    0.99
  -3   4  -2   12.33    0.93
   3   4   2   12.51    0.91
  -4  -4  -2   57.72    2.13
   4  -4   2   61.57    2.33
  -4   4  -2   56.07    2.26
  -4   4  -2   59.35    2.33
   4   4   2   58.73    2.20
   5  -4   2    2.83    0.61
  -5  -4  -2    3.87    0.70
  -5   4  -2    3.10    0.69
   5   4   2    3.16    0.68
  -5   4  -2    3.82    0.78
   6  -4   2    6.85    1.03
  -6  -4  -2    7.42    1.01
  -6  -4  -2    9.24    1.03
  -6   4  -2    9.16    1.25
  -6   4  -2    7.31    1.20
  -6   4  -2    8.63    0.95
   6   4   2    8.49    0.97
   7  -4   2    6.45    1.20
  -7  -4  -2    6.33    1.04
  -7  -4  -2    6.42    1.06
  -7   4  -2    6.84    1.17
   7   4   2    5.46    0.99
  -7   4  -2    5.02    0.85
  -7   4  -2    6.63    1.12
   8  -4   2    4.56    1.11
  -8  -4  -2    3.46    0.85
  -8  -4  -2    4.55    0.92
  -8   4  -2    3.44    0.82
  -8   4  -2    5.05    1.10
   8   4   2    3.95    0.86
  -8   4  -2    4.55    1.10
  -9  -4  -2    1.58    0.69
  -9  -4  -2    0.80    0.61
  -9   4  -2   -0.79    0.48
  -9   4  -2    0.18    0.45
   9   4   2   -0.99    0.49
 -10  -4  -2    2.53    0.90
 -10  -4  -2    2.74    0.97
  10   4   2    4.45    1.09
 -10   4  -2    4.31    0.92
 -10   4  -2    5.49    1.28
 -10   4  -2    5.75    1.30
 -11  -4  -2    1.15    0.91
 -11  -4  -2    1.13    0.92
 -11   4  -2    1.33    0.80
  11   4   2    1.15    0.94
 -11   4  -2    0.11    0.68
 -11   4  -2    1.89    0.95
  12  -5  -2    1.94    0.95
 -12  -5   2    1.47    0.86
 -12  -5   2    2.34    0.91
 -12   5   2    2.23    0.98
 -12   5   2    2.55    0.91
 -12   5   2    1.08    0.66
  12   5  -2    2.02    0.87
  11  -5  -2   -0.79    1.04
 -11  -5   2   -0.53    0.52
 -11  -5   2   -0.16    0.54
 -11   5   2    0.02    0.60
 -11   5   2    1.45    0.86
 -11   5   2    0.07    0.40
  11   5  -2    1.40    0.59
  10  -5  -2    0.31    0.51
  10  -5  -2   -0.04    0.38
 -10  -5   2    0.84    0.54
 -10  -5   2    2.25    0.74
  10   5  -2    0.50    0.50
 -10   5   2    0.11    0.53
 -10   5   2    0.98    0.62
 -10   5   2    1.02    0.51
  -9  -5   2    4.54    1.12
  -9  -5   2    8.84    1.21
   9  -5  -2    7.49    1.14
   9  -5  -2    9.75    1.52
   9  -5  -2    5.87    1.14
   9   5  -2    6.74    1.19
  -9   5   2    7.89    1.34
  -9   5   2    4.76    0.90
  -9   5   2    7.90    1.29
  -8  -5   2   67.17    2.71
   8  -5  -2   73.79    2.91
   8  -5  -2   74.50    3.18
   8  -5  -2   76.27    3.31
  -8   5   2   75.88    2.98
   8   5  -2   69.74    2.86
  -8   5   2   73.58    3.21
  -8   5   2   70.45    3.15
   7  -5  -2    0.00    0.34
  -7  -5   2    0.53    0.40
   7  -5  -2    0.36    0.30
   7  -5  -2    0.57    0.47
  -7   5   2    0.23    0.44
   7   5  -2    0.21    0.32
  -7   5   2    0.12    0.39
  -7   5   2    0.06    0.33
  -6  -5   2   29.33    1.43
   6  -5  -2   27.56    1.62
   6  -5  -2   28.38    1.72
   6  -5  -2   28.00    1.63
   6  -5  -2   29.02    1.57
  -6   5   2   27.95    1.73
   6   5  -2   28.63    1.46
   6   5  -2   29.70    1.06
  -6   5   2   31.27    1.76
  -6   5   2   30.75    1.65
   5  -5  -2    8.02    0.85
   5  -5  -2    8.83    0.93
   5  -5  -2    7.51    1.00
  -5  -5   2    6.94    0.65
   5  -5  -2    5.96    0.74
   5   5  -2    7.76    0.71
  -5   5   2    9.04    1.11
   5   5  -2    7.14    0.67
   5   5  -2    7.95    0.54
  -5   5   2    6.08    0.81
   4  -5  -2    3.95    0.65
   4  -5  -2    2.35    0.52
   4  -5  -2    2.42    0.60
   4  -5  -2    2.95    0.57
  -4   5   2    3.32    0.65
   4   5  -2    2.20    0.35
   4   5  -2    2.71    0.44
  -4   5   2    2.50    0.56
  -4   5   2    2.86    0.59
   4   5  -2    2.13    0.40
   3  -5  -2    2.84    0.47
   3  -5  -2    4.63    0.65
   3  -5  -2    4.88    0.66
   3  -5  -2    4.15    0.72
   3  -5  -2    3.61    0.57
   3   5  -2    3.60    0.48
   3   5  -2    3.61    0.43
   3   5  -2    3.49    0.40
   3   5  -2    5.13    0.77
  -3   5   2    2.94    0.51
  -3   5   2    3.52    0.58
   2  -5  -2  162.11    3.91
  -2  -5   2  156.74    3.92
   2  -5  -2  158.22    4.09
  -2   5   2  159.01    3.73
   2   5  -2  149.48    3.16
   2   5  -2  155.53    3.88
  -2   5   2  152.63    3.78
   1  -5  -2   14.04    0.79
   1  -5  -2   12.50    0.92
  -1  -5   2   13.27    0.81
  -1   5   2   13.83    0.77
  -1   5   2   13.98    0.92
  -1   5   2   15.15    0.83
   1   5  -2   12.48    0.51
   1   5  -2   11.84    0.74
   0  -5  -2   98.51    2.89
   0  -5   2   99.45    2.50
   0  -5   2   97.50    2.22
   0  -5  -2  100.00    2.43
   0   5   2   99.80    2.85
   0   5   2   97.08    2.61
   0   5  -2   97.40    2.45
   0   5   2   95.22    2.41
   0   5  -2   96.61    2.27
   1  -5   2    2.33    0.42
  -1  -5  -2    2.13    0.31
  -1  -5  -2    1.63    0.43
   1   5   2    1.89    0.44
   1   5   2    1.79    0.45
  -1   5  -2    2.26    0.40
   1   5   2    2.47    0.35
  -2  -5  -2    8.43    0.88
   2  -5   2    7.02    0.63
   2  -5   2    6.62    0.65
  -2   5  -2    8.66    0.75
  -2   5  -2    7.35    0.75
   2   5   2    7.59    0.80
   2   5   2    8.33    0.69
  -3  -5  -2    1.69    0.52
   3  -5   2    1.11    0.39
   3   5   2    0.56    0.34
  -3   5  -2    1.58    0.46
   4  -5   2    1.07    0.41
   4   5   2    1.32    0.43
  -4   5  -2    0.61    0.40
  -4   5  -2    0.95    0.54
  -5  -5  -2    3.70    0.70
   5  -5   2    3.10    0.70
  -5   5  -2    3.10    0.76
  -5   5  -2    2.83    0.71
   5   5   2    3.62    0.71
  -5   5  -2    3.74    0.72
  -6  -5  -2   11.68    1.12
  -6  -5  -2   13.36    1.14
   6  -5   2   12.63    1.25
   6   5   2   15.35    1.27
  -6   5  -2   14.03    1.31
  -6   5  -2   14.11    1.33
  -6   5  -2   12.35    1.15
  -7  -5  -2    0.23    0.41
  -7  -5  -2   -0.26    0.34
   7  -5   2    0.13    0.53
  -7   5  -2   -0.10    0.47
  -7   5  -2    1.51    0.65
  -7   5  -2   -0.09    0.33
   7   5   2    0.55    0.69
  -8  -5  -2   17.17    1.48
   8  -5   2   17.36    1.66
  -8  -5  -2   18.89    1.61
   8   5   2   15.66    1.61
  -8   5  -2   16.21    1.62
  -8   5  -2   16.63    1.61
  -8   5  -2   17.69    1.45
  -9  -5  -2    1.84    0.77
  -9  -5  -2    1.59    0.72
   9   5   2    3.15    0.80
  -9   5  -2    1.55    0.57
  -9   5  -2    2.96    0.94
  -9   5  -2    1.82    0.75
 -10  -5  -2    2.02    0.81
  10   5   2   -0.23    0.65
 -10   5  -2    1.19    0.89
 -10   5  -2    0.24    0.57
 -10   5  -2    0.16    0.64
 -11  -5  -2   -0.22    0.81
 -11  -5  -2   -0.21    0.79
 -11   5  -2    0.78    0.73
 -11   5  -2   -0.34    0.51
  11   5   2    2.10    1.00
 -11   5  -2   -0.05    0.80
  12  -6  -2    1.18    0.79
 -12  -6   2    1.12    0.81
 -12   6   2    0.49    0.81
 -12   6   2    0.67    0.61
 -12   6   2   -0.04    0.78
  12   6  -2    0.64    0.67
 -11  -6   2    0.14    0.52
 -11  -6   2    0.79    0.66
  11  -6  -2    0.51    0.62
 -11   6   2   -0.83    0.54
  11   6  -2   -0.73    0.53
 -11   6   2    0.99    0.56
 -11   6   2   -0.74    0.54
  10  -6  -2    1.58    0.76
 -10  -6   2    1.90    0.69
 -10  -6   2    0.09    0.44
 -10   6   2    1.00    0.65
  10   6  -2    1.07    0.60
 -10   6   2   -0.01    0.52
   9  -6  -2    3.62    0.97
   9  -6  -2    4.00    0.95
  -9  -6   2    2.33    0.66
  -9   6   2    3.17    0.85
   9   6  -2    2.50    0.72
  -9   6   2    3.93    0.94
  -9   6   2    3.47    0.85
   8  -6  -2   10.61    2.03
   8  -6  -2   10.98    1.58
  -8  -6   2    9.75    1.00
   8  -6  -2   11.23    1.18
  -8  -6   2   10.83    1.02
  -8   6   2   11.82    1.24
  -8   6   2    8.68    1.31
  -8   6   2    8.10    1.25
   8   6  -2    8.93    1.04
  -7  -6   2   -0.46    0.15
   7  -6  -2   -0.18    0.29
   7  -6  -2   -0.28    0.48
   7  -6  -2   -0.34    0.34
  -7  -6   2    0.00    0.25
  -7   6   2   -0.25    0.30
  -7   6   2   -0.09    0.36
  -7   6   2    0.32    0.43
   7   6  -2   -0.06    0.28
   6  -6  -2    9.64    0.99
   6  -6  -2   10.02    0.98
   6  -6  -2   11.62    1.08
   6  -6  -2   13.52    1.21
  -6  -6   2    9.78    0.82
   6   6  -2   12.28    0.95
  -6   6   2    9.96    1.01
  -6   6   2   12.02    1.14
  -6   6   2    8.89    1.01
   5  -6  -2    3.61    0.66
   5  -6  -2    4.45    0.80
   5  -6  -2    5.34    0.84
  -5  -6   2    5.16    0.53
   5  -6  -2    5.77    0.92
   5   6  -2    4.79    0.63
   5   6  -2    4.89    0.44
  -5   6   2    4.40    0.78
  -5   6   2    4.34    0.75
  -5   6   2    3.48    0.69
   4  -6  -2   -0.22    0.25
   4  -6  -2    0.16    0.25
   4  -6  -2   -0.20    0.21
   4  -6  -2    0.06    0.26
   4   6  -2    0.10    0.20
   4   6  -2    0.18    0.18
  -4   6   2   -0.49    0.19
  -4   6   2   -0.15    0.22
   4   6  -2    0.14    0.21
  -4   6   2    0.03    0.27
   3  -6  -2    0.23    0.30
   3  -6  -2    0.61    0.38
   3  -6  -2    1.01    0.47
   3  -6  -2    0.65    0.32
  -3   6   2    0.30    0.31
   3   6  -2    0.66    0.23
   3   6  -2    0.48    0.23
   3   6  -2    0.52    0.33
  -3   6   2    0.68    0.34
   3   6  -2    0.48    0.20
   2  -6  -2   18.66    1.22
   2  -6  -2   17.62    1.03
   2  -6  -2   17.58    0.92
  -2  -6   2   16.80    1.10
   2  -6  -2   17.05    0.91
  -2   6   2   17.28    1.05
   2   6  -2   17.62    1.04
  -2   6   2   18.11    0.98
   1  -6  -2   18.52    0.86
   1  -6  -2   19.44    0.85
   1  -6  -2   17.20    1.15
   1  -6  -2   19.75    1.01
  -1  -6   2   19.13    1.06
  -1   6   2   18.80    1.01
   1   6  -2   19.48    1.02
  -1   6   2   19.03    1.09
  -1   6   2   18.62    1.15
   0  -6  -2  178.52    3.96
   0  -6  -2  184.63    4.65
   0  -6   2  175.25    3.64
   0  -6  -2  184.28    4.04
   0  -6   2  180.94    4.19
   0   6   2  179.00    4.56
   0   6  -2  173.29    3.74
   0   6   2  178.56    3.98
   0   6   2  176.66    4.02
   0   6  -2  178.04    4.12
   1  -6   2    0.30    0.22
  -1  -6  -2    0.15    0.22
  -1  -6  -2    0.16    0.35
   1  -6   2    0.43    0.28
  -1  -6  -2    0.66    0.25
   1   6   2    0.68    0.28
  -1   6  -2    0.30    0.25
  -1   6  -2    0.38    0.31
   1   6   2    0.28    0.22
  -1   6  -2    0.38    0.24
  -2  -6  -2   33.30    1.00
  -2  -6  -2   32.13    1.30
   2  -6   2   32.76    1.44
  -2  -6  -2   34.63    1.87
   2   6   2   34.03    1.40
  -2   6  -2   32.06    1.55
  -2   6  -2   32.51    1.41
  -3  -6  -2    0.36    0.46
   3  -6   2    0.26    0.31
   3  -6   2    0.45    0.30
   3   6   2    0.45    0.30
  -3   6  -2    0.70    0.41
   4  -6   2   20.31    1.29
  -4   6  -2   21.22    1.35
  -4   6  -2   18.41    1.30
  -4   6  -2   19.53    1.32
   4   6   2   22.59    1.28
  -5  -6  -2   22.94    1.34
   5  -6   2   20.08    1.42
  -5   6  -2   22.36    1.51
   5   6   2   22.01    1.38
  -5   6  -2   20.92    1.49
  -5   6  -2   20.99    1.43
   6  -6   2    8.66    1.27
  -6  -6  -2    6.56    0.96
  -6   6  -2    6.54    0.98
  -6   6  -2    4.93    0.91
   6   6   2    6.88    1.01
   7  -6   2    0.83    0.55
  -7  -6  -2    0.40    0.43
  -7  -6  -2    0.51    0.35
   7   6   2    0.07    0.48
  -7   6  -2    0.30    0.49
  -7   6  -2    0.67    0.55
  -7   6  -2    0.89    0.47
  -8  -6  -2    3.87    0.84
  -8  -6  -2    5.02    0.97
  -8   6  -2    3.41    0.94
  -8   6  -2    3.87    0.84
   8   6   2    3.97    0.98
  -8   6  -2    3.39    0.99
  -9  -6  -2    3.39    0.95
  -9  -6  -2    2.85    0.84
  -9   6  -2    1.86    0.77
  -9   6  -2    1.19    0.78
  -9   6  -2    1.16    0.69
   9   6   2    2.10    0.71
 -10  -6  -2    2.14    0.91
 -10  -6  -2    2.06    0.84
 -10   6  -2    0.98    0.79
  10   6   2    1.92    0.71
 -10   6  -2    1.37    0.86
 -10   6  -2    2.03    0.68
 -11  -6  -2    0.05    0.91
 -11  -6  -2    0.17    1.45
 -11   6  -2    0.72    0.67
 -11   6  -2   -0.71    0.78
 -11   6  -2    2.27    0.90
  11   6   2   -0.32    0.88
  12  -7  -2    0.29    0.93
 -12   7   2   -1.35    0.68
  12   7  -2    0.11    0.78
 -12   7   2   -0.34    0.51
 -12   7   2    0.03    0.60
  11  -7  -2    4.79    1.35
 -11  -7   2    5.64    1.11
 -11   7   2    5.78    1.30
 -11   7   2    7.18    1.27
  11   7  -2    5.74    1.13
 -11   7   2    3.52    0.99
 -10  -7   2    0.08    0.45
  10  -7  -2    0.19    0.48
  10   7  -2    0.52    0.50
 -10   7   2    0.85    0.63
 -10   7   2    0.67    0.62
 -10   7   2    0.02    0.45
   9  -7  -2    2.46    0.80
  -9  -7   2    2.29    0.66
  -9  -7   2    0.10    0.71
   9  -7  -2    1.49    0.73
  -9   7   2    0.82    0.66
   9   7  -2    3.05    0.80
  -9   7   2    1.61    0.75
  -9   7   2    1.60    0.64
  -8  -7   2   32.73    1.74
   8  -7  -2   35.18    2.24
   8  -7  -2   34.51    2.02
  -8  -7   2   27.16    2.39
   8  -7  -2   33.05    2.09
  -8   7   2   34.94    2.09
  -8   7   2   37.12    2.23
   8   7  -2   34.39    1.87
   7  -7  -2    0.22    0.32
   7  -7  -2   -0.08    0.38
   7  -7  -2    0.51    0.40
  -7  -7   2    0.52    0.35
  -7   7   2    1.29    0.60
  -7   7   2    0.31    0.43
  -7   7   2    1.06    0.51
   7   7  -2    0.04    0.31
   6  -7  -2   58.69    2.47
  -6  -7   2   56.53    1.95
   6  -7  -2   54.49    2.41
   6  -7  -2   54.07    2.41
   6  -7  -2   60.07    2.61
  -6   7   2   59.37    2.53
  -6   7   2   58.76    2.52
   6   7  -2   54.60    2.15
  -6   7   2   57.69    2.53
   5  -7  -2    0.00    0.31
   5  -7  -2    0.07    0.33
   5  -7  -2   -0.06    0.26
   5  -7  -2    0.57    0.34
   5   7  -2    0.19    0.17
  -5   7   2   -0.01    0.30
  -5   7   2    0.22    0.34
  -5   7   2    0.39    0.33
   5   7  -2   -0.15    0.20
   4  -7  -2   16.80    1.14
   4  -7  -2   15.85    1.11
   4  -7  -2   13.22    0.97
   4  -7  -2   16.96    1.33
   4  -7  -2   13.02    0.98
  -4   7   2   12.26    1.01
  -4   7   2   15.61    1.16
   4   7  -2   15.68    0.80
  -4   7   2   13.71    1.05
   3  -7  -2   13.52    0.94
   3  -7  -2   15.15    1.20
   3  -7  -2   14.42    1.04
   3  -7  -2   14.42    0.92
   3  -7  -2   15.05    0.96
   3   7  -2   13.10    0.59
  -3   7   2   13.59    0.96
  -3   7   2   15.95    1.11
  -2  -7   2   79.87    2.70
   2  -7  -2   79.62    3.40
   2  -7  -2   81.19    2.43
   2  -7  -2   80.18    2.54
  -2   7   2   82.43    2.41
   2   7  -2   77.33    2.60
  -2   7   2   81.75    2.57
  -1  -7   2   62.32    2.19
   1  -7  -2   63.81    2.07
   1  -7  -2   61.89    1.87
   1  -7  -2   61.05    1.78
   1  -7  -2   62.05    2.37
   1  -7  -2   62.72    1.80
  -1   7   2   61.76    1.89
  -1   7   2   62.59    2.06
   1   7  -2   59.72    2.10
   0  -7   2   30.56    1.40
   0  -7  -2   32.16    1.29
   0  -7  -2   30.48    1.73
   0  -7  -2   31.76    1.15
   0   7  -2   32.31    1.61
   0   7   2   33.14    1.32
   0   7  -2   31.83    1.05
   0   7   2   31.10    1.21
  -1  -7  -2   13.01    1.12
  -1  -7  -2   12.10    0.68
   1  -7   2   11.58    0.84
   1  -7   2   10.79    0.68
  -1  -7  -2   11.04    0.68
  -1   7  -2   13.14    1.00
  -1   7  -2   11.34    0.93
   1   7   2   10.85    0.68
  -1   7  -2   11.38    0.75
   1   7   2   10.38    0.72
   2  -7   2   29.35    1.30
   2  -7   2   28.98    1.39
  -2  -7  -2   32.58    1.20
  -2  -7  -2   30.35    1.76
  -2  -7  -2   30.88    1.03
   2   7   2   30.73    1.29
  -2   7  -2   31.13    1.38
   2   7   2   29.82    1.02
  -2   7  -2   26.96    1.50
   3  -7   2   11.79    0.94
  -3  -7  -2   13.31    1.31
   3  -7   2   14.77    1.00
  -3  -7  -2   13.01    0.82
  -3   7  -2   12.58    1.08
  -3   7  -2   12.73    0.97
  -3   7  -2   12.85    1.01
   4  -7   2    1.92    0.55
  -4  -7  -2    1.26    0.60
  -4   7  -2    1.15    0.44
  -4   7  -2    0.97    0.43
   4   7   2    1.60    0.44
  -4   7  -2    1.73    0.53
   5  -7   2    2.48    0.59
  -5  -7  -2    2.08    0.53
  -5   7  -2    2.25    0.65
  -5   7  -2    3.07    0.71
  -5   7  -2    3.40    0.78
   5   7   2    1.69    0.51
  -6  -7  -2   21.34    1.39
  -6  -7  -2   23.06    1.49
   6   7   2   22.03    1.51
  -6   7  -2   22.15    1.60
  -6   7  -2   20.68    1.62
  -6   7  -2   22.95    1.69
  -7  -7  -2   74.46    2.93
   7  -7   2   74.66    3.28
  -7   7  -2   76.35    3.36
   7   7   2   75.69    3.13
  -7   7  -2   73.11    3.08
  -7   7  -2   73.59    3.32
  -8  -7  -2    7.66    1.15
  -8  -7  -2    6.94    1.15
  -8   7  -2    6.77    1.30
   8   7   2    7.05    1.48
  -8   7  -2    9.51    2.04
  -8   7  -2    6.11    1.13
  -9  -7  -2   -0.20    0.58
  -9  -7  -2   -0.68    0.30
  -9   7  -2    0.22    0.50
   9   7   2    1.19    0.63
  -9   7  -2   -0.39    0.42
 -10  -7  -2    4.87    1.10
 -10  -7  -2    5.44    1.19
 -10   7  -2    5.14    1.28
 -10   7  -2    4.46    1.01
  10   7   2    4.04    1.11
 -10   7  -2    6.68    1.39
  11  -8  -2    1.17    0.70
 -11  -8   2    0.59    0.56
 -11   8   2   -0.08    0.57
 -11   8   2    0.71    0.56
 -11   8   2   -0.55    0.59
  11   8  -2    0.61    0.71
  10  -8  -2    0.66    0.61
 -10  -8   2   -0.17    0.51
 -10   8   2    0.82    0.59
 -10   8   2    0.31    0.45
 -10   8   2    0.94    0.69
  10   8  -2    0.38    0.58
  -9  -8   2    0.74    0.44
   9  -8  -2    0.16    0.48
  -9   8   2   -0.29    0.40
  -9   8   2    0.12    0.48
  -9   8   2    0.34    0.70
   8  -8  -2    5.42    1.06
  -8  -8   2    5.64    0.83
   8  -8  -2    5.83    1.10
   8  -8  -2    4.37    1.01
  -8   8   2    4.86    0.97
  -8   8   2    5.58    1.08
   8   8  -2    5.05    0.86
  -8   8   2    6.69    1.16
   7  -8  -2   42.87    2.28
   7  -8  -2   43.34    2.39
  -7  -8   2   42.67    1.77
   7  -8  -2   42.68    2.25
   7   8  -2   48.88    2.94
  -7   8   2   43.29    2.30
  -7   8   2   43.73    2.35
  -7   8   2   40.89    2.35
   6  -8  -2    0.05    0.34
   6  -8  -2    0.13    0.33
   6  -8  -2    0.14    0.39
  -6   8   2    0.00    0.33
  -6   8   2    0.58    0.44
   6   8  -2   -0.23    0.22
  -6   8   2    0.33    0.39
   5  -8  -2    6.80    0.91
   5  -8  -2    8.27    1.17
   5  -8  -2    5.46    0.87
   5  -8  -2    7.77    1.30
   5  -8  -2    8.10    1.10
  -5   8   2    7.13    0.96
   5   8  -2    6.96    0.53
  -5   8   2    8.20    1.12
  -5   8   2    7.08    1.02
   5   8  -2    7.08    0.64
   4  -8  -2    0.27    0.32
   4  -8  -2    0.44    0.32
   4  -8  -2   -0.17    0.31
   4  -8  -2    0.28    0.30
   4  -8  -2    0.09    0.27
   4   8  -2    0.22    0.21
  -4   8   2    0.25    0.32
  -4   8   2   -0.16    0.24
  -4   8   2    0.03    0.28
   3  -8  -2   19.76    1.25
   3  -8  -2   19.57    1.09
  -3  -8   2   18.07    1.35
   3  -8  -2   19.67    1.35
   3  -8  -2   19.11    1.39
   3  -8  -2   19.12    1.08
  -3   8   2   19.01    1.25
   2  -8  -2   14.64    1.03
   2  -8  -2   15.05    1.21
  -2  -8   2   13.67    1.11
   2  -8  -2   12.76    0.81
   2  -8  -2   14.61    0.86
  -2   8   2   11.72    1.00
  -2   8   2   13.40    0.89
   1  -8  -2   43.15    1.42
   1  -8  -2   40.65    2.01
  -1  -8   2   42.48    1.85
   1  -8  -2   40.40    1.66
   1  -8  -2   44.89    1.64
   1  -8  -2   39.95    1.43
   1   8  -2   40.53    1.76
  -1   8   2   43.35    1.54
  -1   8   2   40.46    1.67
   0  -8  -2   30.85    1.12
   0  -8  -2   30.75    1.72
   0  -8   2   29.17    1.46
   0  -8  -2   30.69    1.08
   0  -8  -2   30.04    1.38
   0   8   2   30.94    1.34
   0   8   2   30.36    1.21
   0   8  -2   29.82    1.42
   0   8  -2   31.85    1.52
   0   8  -2   30.11    1.03
  -1  -8  -2    0.39    0.39
  -1  -8  -2    0.21    0.19
   1  -8   2    0.38    0.41
  -1  -8  -2    0.69    0.26
   1  -8   2    0.17    0.20
   1   8   2    0.38    0.27
  -1   8  -2    0.36    0.31
  -1   8  -2    0.05    0.23
   1   8   2    0.41    0.25
  -1   8  -2    0.40    0.35
   2  -8   2    8.50    0.82
  -2  -8  -2    9.01    0.58
  -2  -8  -2    8.89    1.50
  -2  -8  -2    8.96    0.61
   2   8   2    8.77    0.57
  -2   8  -2    8.50    0.75
  -2   8  -2    8.10    0.75
   2   8   2    8.59    0.71
  -2   8  -2    7.98    0.86
  -3  -8  -2    4.97    0.94
   3  -8   2    8.25    0.78
   3  -8   2    6.44    0.93
  -3  -8  -2    7.07    0.61
  -3   8  -2    7.05    0.79
  -3   8  -2    8.43    1.13
  -3   8  -2    7.17    0.90
   3   8   2    8.21    0.72
   4  -8   2   -0.60    0.20
  -4  -8  -2   -0.02    0.34
  -4  -8  -2   -0.23    0.22
   4  -8   2   -0.05    0.24
   4   8   2    0.26    0.36
  -4   8  -2    0.43    0.34
  -4   8  -2    0.23    0.35
  -4   8  -2   -0.19    0.26
   5  -8   2    8.36    0.97
  -5  -8  -2    7.98    0.81
  -5   8  -2    8.67    1.20
  -5   8  -2    7.13    1.02
   5   8   2    9.37    0.94
  -5   8  -2    7.09    1.11
   6  -8   2    6.80    1.13
  -6  -8  -2    5.53    0.88
  -6  -8  -2    5.79    0.85
  -6   8  -2    4.84    0.92
  -6   8  -2    5.57    1.03
   6   8   2    6.73    1.01
  -6   8  -2    4.86    0.96
  -7  -8  -2    3.61    0.76
  -7   8  -2    3.77    0.89
   7   8   2    4.75    0.87
  -7   8  -2    4.59    0.99
  -7   8  -2    3.07    0.87
  -8  -8  -2    5.19    1.01
  -8  -8  -2    5.22    0.97
   8   8   2    4.65    0.99
  -8   8  -2    4.48    1.75
  -8   8  -2    4.72    1.11
  -8   8  -2    3.95    1.18
  -9  -8  -2    3.13    0.84
   9   8   2    1.59    0.89
  -9   8  -2    4.22    1.12
  -9   8  -2    3.19    0.91
  -9   8  -2    4.17    1.13
 -10  -8  -2    3.08    0.94
 -10   8  -2    3.49    1.16
 -10   8  -2    1.48    0.85
  10   8   2    4.72    1.02
  11  -9  -2    0.64    0.78
 -11   9   2   -0.63    0.50
  11   9  -2   -0.62    0.62
 -11   9   2   -1.01    0.53
 -11   9   2   -0.52    0.63
  10  -9  -2   -0.69    0.49
 -10  -9   2   -1.10    0.48
  10   9  -2   -0.99    0.40
 -10   9   2   -0.10    0.50
 -10   9   2    0.27    0.51
 -10   9   2   -0.21    0.52
  -9  -9   2   -0.15    0.39
   9  -9  -2   -0.50    0.40
  -9   9   2    0.40    0.52
  -9   9   2    0.46    0.60
   9   9  -2    0.14    0.36
  -9   9   2    0.00    0.47
   8  -9  -2    2.58    0.95
  -8   9   2    4.71    1.02
   8   9  -2    3.37    0.72
  -8   9   2    3.11    0.84
  -8   9   2    3.81    0.95
   7  -9  -2    5.48    1.01
   7  -9  -2    5.33    1.04
   7  -9  -2    4.47    0.89
   7  -9  -2    5.03    1.10
  -7   9   2    5.00    0.93
  -7   9   2    4.41    0.97
   7   9  -2    3.82    0.70
  -7   9   2    2.98    0.75
   6  -9  -2    6.08    1.27
   6  -9  -2    7.99    1.17
   6  -9  -2    4.72    1.00
  -6   9   2    7.09    1.13
  -6   9   2    4.40    0.81
  -6   9   2    6.55    1.02
   6   9  -2    7.45    0.74
   5  -9  -2   11.91    1.28
   5  -9  -2   11.88    1.11
   5  -9  -2   12.29    1.06
   5  -9  -2   11.85    1.10
   5  -9  -2   11.66    1.03
  -5   9   2   12.48    1.20
  -5   9   2   12.18    1.12
   5   9  -2   13.55    0.76
  -5   9   2   11.89    1.09
   5   9  -2   11.89    0.78
   4  -9  -2   10.38    0.87
   4  -9  -2    8.74    0.82
   4  -9  -2    7.88    1.15
   4  -9  -2    8.12    0.85
  -4   9   2    8.56    0.89
  -4   9   2    9.16    0.99
  -3  -9   2    3.25    0.85
   3  -9  -2    4.26    0.64
   3  -9  -2    2.17    0.58
   3  -9  -2    3.79    0.77
   3  -9  -2    4.35    0.64
  -3   9   2    2.67    0.63
   2  -9  -2    0.37    0.24
  -2  -9   2    0.54    0.41
   2  -9  -2    0.67    0.37
   2  -9  -2    0.40    0.26
   2  -9  -2    0.01    0.20
  -2   9   2    0.21    0.32
  -2   9   2    0.65    0.38
   2   9  -2   -0.07    0.23
  -1  -9   2    1.44    0.82
   1  -9  -2    0.44    0.24
   1  -9  -2    0.50    0.25
   1  -9  -2    0.28    0.50
   1  -9  -2    0.73    0.31
   1  -9  -2    0.34    0.23
  -1   9   2    0.52    0.38
   1   9  -2    0.66    0.36
  -1   9   2    0.63    0.29
   0  -9  -2    0.60    0.23
   0  -9  -2    0.48    0.21
   0  -9   2    0.17    0.30
   0  -9  -2    0.39    0.26
   0  -9  -2    0.21    0.19
   0   9  -2   -0.32    0.21
   0   9  -2    0.32    0.24
   0   9   2    0.56    0.32
  -1  -9  -2    2.43    0.65
   1  -9   2    3.37    0.44
  -1  -9  -2    2.51    0.73
   1  -9   2    3.58    0.68
  -1  -9  -2    2.34    0.35
   1  -9   2    2.88    0.41
  -1   9  -2    2.86    0.47
  -1   9  -2    2.75    0.60
  -1   9  -2    2.99    0.47
   1   9   2    2.55    0.44
   1   9   2    2.33    0.44
  -2  -9  -2   12.55    1.25
   2  -9   2   10.69    0.95
  -2  -9  -2   12.15    0.67
   2  -9   2   10.56    0.77
  -2   9  -2   10.85    0.83
   2   9   2   11.85    0.83
  -2   9  -2   12.14    1.08
  -2   9  -2   11.37    0.87
   2   9   2   11.15    0.69
   3  -9   2   12.61    0.94
  -3  -9  -2   12.93    0.76
  -3  -9  -2   13.64    1.35
   3  -9   2   13.02    1.08
  -3   9  -2   12.57    1.01
  -3   9  -2   10.73    1.09
  -3   9  -2   11.99    0.98
   3   9   2   11.85    0.87
   4  -9   2    6.26    0.96
  -4  -9  -2    6.26    1.09
   4  -9   2    7.32    0.98
  -4  -9  -2    8.58    0.72
   4   9   2    7.66    0.81
  -4   9  -2    6.11    0.90
  -4   9  -2    7.69    1.04
  -4   9  -2    7.17    1.04
  -5  -9  -2    4.14    0.67
  -5  -9  -2    3.87    0.63
   5  -9   2    2.76    0.64
   5  -9   2    4.81    0.88
  -5   9  -2    4.88    0.91
  -5   9  -2    5.21    0.95
   5   9   2    3.85    0.73
  -5   9  -2    3.15    0.70
  -6  -9  -2    0.16    0.39
  -6  -9  -2    0.05    0.32
   6  -9   2    0.71    0.49
   6  -9   2    0.95    0.56
  -6   9  -2    0.72    0.46
  -6   9  -2    0.46    0.48
   6   9   2    0.95    0.51
  -6   9  -2    0.57    0.48
  -7  -9  -2    0.48    0.42
  -7   9  -2    0.48    0.44
  -7   9  -2    1.30    0.56
   7   9   2    1.42    0.63
  -7   9  -2    1.26    0.76
  -8  -9  -2    0.58    0.49
  -8  -9  -2    0.08    0.44
  -8   9  -2    1.27    0.71
  -8   9  -2    1.22    0.77
  -8   9  -2    2.56    0.80
   8   9   2    2.89    0.82
  -9  -9  -2    2.26    0.75
  -9  -9  -2    2.39    1.06
  -9   9  -2    3.27    0.95
  -9   9  -2    2.31    0.93
  -9   9  -2    2.07    0.89
 -10  -9  -2   -1.01    0.68
 -10  -9  -2    0.37    0.61
  10   9   2    1.80    0.88
 -10   9  -2    0.04    0.55
 -10   9  -2    0.44    0.65
 -10   9  -2    0.80    0.82
  11 -10  -2    2.74    1.10
 -11  10   2    3.90    1.15
 -11  10   2    2.62    1.02
 -11  10   2    4.25    1.05
  10 -10  -2    1.49    0.85
 -10  10   2    1.00    0.70
 -10  10   2    2.13    0.82
 -10  10   2    1.24    0.68
   9 -10  -2   -0.58    0.44
   9 -10  -2   -0.05    0.52
   9  10  -2    0.28    0.40
  -9  10   2   -0.65    0.35
  -9  10   2   -0.40    0.46
   8 -10  -2    0.04    0.57
   8 -10  -2   -0.55    0.41
  -8  10   2   -0.21    0.40
  -8  10   2   -0.72    0.32
  -8  10   2   -0.28    0.71
   8  10  -2   -0.44    0.27
   7 -10  -2   27.75    1.94
   7 -10  -2   27.87    2.22
   7 -10  -2   26.15    2.72
  -7  10   2   26.55    1.91
  -7  10   2   25.74    1.86
   7  10  -2   26.48    1.46
  -7  10   2   27.44    1.93
   6 -10  -2   12.37    1.82
   6 -10  -2   10.94    1.13
   6 -10  -2   11.94    1.21
   6 -10  -2   10.59    1.14
  -6  10   2   11.13    1.25
  -6  10   2   12.01    1.23
  -6  10   2    9.95    1.15
   6  10  -2   12.27    0.90
   5 -10  -2    0.65    0.37
   5 -10  -2    0.46    0.36
   5 -10  -2    0.55    0.36
   5 -10  -2    0.32    0.48
   5  10  -2    0.73    0.30
  -5  10   2    1.08    0.56
  -5  10   2    0.74    0.45
   5  10  -2    0.68    0.32
   4 -10  -2   -0.12    0.33
   4 -10  -2   -0.05    0.26
   4 -10  -2    0.14    0.28
   4 -10  -2   -0.21    0.22
   4 -10  -2    0.33    0.33
   4  10  -2    0.47    0.27
  -4  10   2    0.12    0.33
  -4  10   2   -0.29    0.22
   3 -10  -2    3.40    0.63
   3 -10  -2    2.79    0.53
  -3 -10   2    3.84    0.91
   3 -10  -2    1.94    0.69
   3 -10  -2    2.53    0.51
  -3  10   2    3.27    0.71
   3  10  -2    2.25    0.48
  -2 -10   2   15.01    1.33
   2 -10  -2   14.86    0.91
   2 -10  -2   14.47    1.31
   2 -10  -2   14.77    0.87
   2 -10  -2   15.13    0.89
   2 -10  -2   16.17    1.15
  -2  10   2   15.09    0.98
  -2  10   2   15.69    1.17
   2  10  -2   15.31    1.06
   1 -10  -2   19.58    1.51
   1 -10  -2   19.56    0.91
   1 -10  -2   21.30    0.98
   1 -10  -2   20.87    0.93
  -1 -10   2   18.84    1.36
   1  10  -2   20.90    1.36
  -1  10   2   21.80    1.08
  -1  10   2   22.58    1.63
   0 -10  -2   26.31    0.98
   0 -10  -2   24.69    1.32
   0 -10   2   25.76    1.54
   0 -10  -2   25.99    0.96
   0 -10  -2   26.49    1.77
   0 -10  -2   26.01    0.95
   0  10  -2   25.88    1.46
   0  10  -2   24.40    1.44
   0  10   2   25.48    1.14
   0  10  -2   24.93    0.95
   0  10   2   23.82    1.30
   1 -10   2    1.14    0.27
  -1 -10  -2    0.37    0.44
  -1 -10  -2    1.08    0.35
   1 -10   2    0.78    0.40
  -1 -10  -2    1.02    0.23
   1 -10   2    1.04    0.27
  -1  10  -2    0.60    0.30
  -1  10  -2    1.00    0.34
   1  10   2    1.00    0.34
  -1  10  -2    0.36    0.38
   1  10   2    1.04    0.33
   2 -10   2    7.19    1.03
   2 -10   2    7.28    0.65
  -2 -10  -2    4.46    0.96
   2 -10   2    6.14    0.59
  -2  10  -2    5.26    0.70
   2  10   2    5.03    0.54
   2  10   2    6.31    0.61
  -2  10  -2    6.04    0.77
  -2  10  -2    7.62    1.06
   3 -10   2    7.96    0.77
   3 -10   2    6.75    0.99
  -3 -10  -2    7.16    1.30
  -3 -10  -2    7.62    0.58
  -3  10  -2    7.11    0.91
  -3  10  -2    7.42    1.02
   3  10   2    7.74    0.74
  -3  10  -2    7.61    0.97
  -4 -10  -2    0.37    0.49
   4 -10   2    0.06    0.29
   4 -10   2    0.26    0.40
  -4 -10  -2   -0.30    0.22
  -4 -10  -2    0.39    0.26
  -4  10  -2    0.55    0.39
  -4  10  -2   -0.07    0.32
  -4  10  -2   -0.15    0.29
   4  10   2    0.05    0.27
  -5 -10  -2   56.04    2.00
   5 -10   2   48.73    2.34
   5 -10   2   55.39    2.60
  -5 -10  -2   57.02    2.03
  -5  10  -2   58.34    2.64
   5  10   2   60.68    2.38
  -5  10  -2   56.74    2.61
  -5  10  -2   55.23    2.73
   6 -10   2   12.65    1.35
  -6 -10  -2   15.95    1.11
  -6 -10  -2   15.97    1.14
   6  10   2   18.11    1.38
  -6  10  -2   15.51    1.46
  -6  10  -2   14.40    1.42
  -6  10  -2   15.05    1.48
   7 -10   2    0.36    0.50
  -7 -10  -2    1.01    0.54
  -7 -10  -2    0.44    0.49
  -7  10  -2    0.88    0.53
  -7  10  -2    1.14    0.59
   7  10   2    1.12    0.59
  -7  10  -2    0.31    0.46
  -8 -10  -2    0.54    0.52
   8 -10   2   -0.40    0.41
  -8 -10  -2    0.43    0.44
  -8  10  -2    0.26    0.53
  -8  10  -2    1.34    0.70
   8  10   2    0.02    0.50
  -8  10  -2    1.03    0.62
  -9 -10  -2    3.38    0.91
   9 -10   2    2.86    0.96
  -9  10  -2    5.48    1.21
  -9  10  -2    2.29    0.88
  -9  10  -2    3.39    1.03
   9  10   2    3.12    0.91
 -10 -10  -2   -1.38    0.74
 -10  10  -2    1.26    0.79
  10  10   2   -1.55    0.71
 -10  10  -2   -0.25    0.53
 -10  10  -2    1.08    0.88
  10 -11  -2    0.37    0.62
  10 -11  -2    2.15    0.96
 -10  11   2    1.78    0.85
 -10  11   2    1.90    0.84
  10  11  -2    1.18    0.63
 -10  11   2    1.45    0.89
   9 -11  -2    4.26    1.26
   9 -11  -2    3.74    0.98
  -9  11   2    5.53    1.25
  -9  11   2    3.79    0.98
   9  11  -2    3.10    0.72
  -9  11   2    3.48    0.90
   8 -11  -2    0.83    0.57
  -8  11   2    0.70    0.48
   8  11  -2    0.32    0.40
  -8  11   2   -0.19    0.35
  -8  11   2    1.38    0.67
   7 -11  -2    3.14    0.86
  -7  11   2    4.85    1.01
  -7  11   2    4.50    0.98
   7  11  -2    4.56    0.70
  -7  11   2    3.07    0.83
   6 -11  -2    2.91    0.97
   6 -11  -2    1.77    0.62
  -6  11   2    1.36    0.55
  -6  11   2    3.11    0.72
   6  11  -2    1.92    0.45
  -6  11   2    2.16    0.74
   5 -11  -2    4.94    1.02
   5 -11  -2    4.49    0.88
   5 -11  -2    4.80    0.84
   5 -11  -2    4.50    0.81
  -5  11   2    4.98    0.95
  -5  11   2    4.63    0.88
   5  11  -2    4.51    0.59
   4 -11  -2    4.02    0.71
   4 -11  -2    4.03    0.80
  -4 -11   2    3.12    0.78
   4 -11  -2    4.84    0.75
   4 -11  -2    4.79    1.04
   4  11  -2    4.93    0.66
  -4  11   2    3.55    0.72
   3 -11  -2    6.95    0.69
   3 -11  -2    6.89    0.85
   3 -11  -2    4.75    0.95
  -3 -11   2    6.46    1.18
   3 -11  -2    6.15    0.79
   3 -11  -2    8.94    1.19
   3  11  -2    6.42    0.84
  -3  11   2    5.88    0.95
  -2 -11   2   15.67    1.36
   2 -11  -2   14.31    0.86
   2 -11  -2   11.43    1.27
   2 -11  -2   11.48    1.04
   2 -11  -2   15.38    0.88
   2 -11  -2   14.87    0.92
  -2  11   2   16.93    1.26
   2  11  -2   15.06    1.41
   1 -11  -2    8.07    0.58
   1 -11  -2    7.65    0.59
   1 -11  -2    6.99    0.54
   1 -11  -2   11.41    1.55
   1 -11  -2    7.64    0.93
  -1  11   2    7.77    0.74
  -1  11   2    6.76    0.88
   1  11  -2    8.05    1.02
   0 -11  -2    7.45    0.78
   0 -11   2    9.29    1.02
   0 -11  -2   12.30    1.64
   0  11  -2    9.10    0.98
   0  11  -2    8.96    0.58
   0  11   2   10.56    1.31
   0  11   2    9.04    0.70
   0  11  -2    9.50    0.59
  -1 -11  -2   49.55    2.58
   1 -11   2   46.97    2.22
  -1  11  -2   47.33    1.67
  -1  11  -2   49.12    1.68
   1  11   2   50.85    1.71
  -1  11  -2   51.53    2.32
   1  11   2   46.23    1.84
   2 -11   2    1.50    0.38
  -2 -11  -2    1.04    0.54
   2 -11   2    0.55    0.47
   2 -11   2    2.04    0.45
  -2  11  -2    1.31    0.42
   2  11   2    1.63    0.38
  -2  11  -2    1.55    0.61
   2  11   2    1.31    0.36
  -2  11  -2    2.06    0.50
   3 -11   2   10.18    1.35
  -3 -11  -2    9.16    1.57
   3 -11   2    8.29    0.82
  -3 -11  -2    9.62    0.59
   3  11   2    8.84    0.64
  -3  11  -2   10.00    0.93
   3  11   2    9.80    0.81
  -3  11  -2    9.17    0.91
  -3  11  -2    7.61    1.08
  -4 -11  -2    4.73    1.16
   4 -11   2    5.56    0.84
   4 -11   2    4.94    0.99
  -4 -11  -2    4.95    0.58
  -4 -11  -2    4.44    0.55
  -4  11  -2    3.78    0.75
  -4  11  -2    3.62    0.77
  -4  11  -2    3.89    0.77
   4  11   2    4.94    0.73
  -5 -11  -2    1.62    0.44
   5 -11   2    1.66    0.57
   5 -11   2    0.95    0.60
  -5 -11  -2    2.60    0.52
  -5  11  -2    2.06    0.64
   5  11   2    2.40    0.63
  -5  11  -2    0.99    0.53
  -5  11  -2    1.90    0.64
  -6 -11  -2    8.26    0.90
   6 -11   2    5.90    1.16
  -6 -11  -2    7.92    0.83
  -6  11  -2    7.78    1.23
  -6  11  -2    8.61    1.39
  -6  11  -2    9.47    1.31
   6  11   2    8.15    1.09
   7 -11   2    0.43    0.57
  -7 -11  -2    0.95    0.47
  -7  11  -2    0.32    0.49
   7  11   2    0.02    0.47
  -7  11  -2    1.91    0.77
  -7  11  -2    1.46    0.60
  -8 -11  -2    2.45    0.71
   8 -11   2    2.47    0.86
  -8  11  -2    2.77    0.88
   8  11   2    0.59    0.58
  -8  11  -2    1.59    0.80
  -8  11  -2    0.95    0.65
  -9 -11  -2    0.29    0.64
  -9  11  -2    1.31    0.81
   9  11   2    2.35    0.79
  -9  11  -2    1.97    0.70
  10 -12  -2   -0.11    0.64
  10 -12  -2   -0.09    0.54
 -10  12   2    1.48    0.76
  10  12  -2    0.32    0.54
 -10  12   2    1.21    0.63
 -10  12   2    0.36    0.62
  10  12  -2    0.91    0.60
   9 -12  -2    2.80    0.99
   9 -12  -2    0.84    0.71
  -9  12   2    1.26    0.62
  -9  12   2    1.94    0.80
   9  12  -2    1.89    0.58
  -9  12   2    1.44    0.77
   9  12  -2    0.79    0.53
   8 -12  -2    0.14    0.48
  -8  12   2    0.85    0.59
  -8  12   2   -0.89    0.37
   8  12  -2    0.20    0.42
  -8  12   2    0.29    0.46
   7 -12  -2    5.38    1.34
   7 -12  -2    4.53    0.97
  -7  12   2    4.17    0.94
  -7  12   2    4.77    1.00
   7  12  -2    5.89    0.80
   6 -12  -2    0.33    0.50
   6 -12  -2   -0.25    0.36
   6  12  -2   -0.19    0.25
  -6  12   2    1.00    0.97
   6  12  -2   -0.02    0.30
  -6  12   2   -0.52    0.31
   5 -12  -2   64.98    2.59
   5 -12  -2   67.76    3.02
   5 -12  -2   68.75    3.39
   5 -12  -2   63.50    2.68
  -5  12   2   68.05    2.80
   5  12  -2   67.73    2.20
  -5  12   2   63.72    2.97
  -4 -12   2   23.36    1.90
   4 -12  -2   20.57    1.33
   4 -12  -2   22.09    1.83
   4 -12  -2   20.45    1.56
   4  12  -2   20.32    1.22
  -4  12   2   20.91    1.61
   3 -12  -2   22.67    1.27
   3 -12  -2   23.88    1.85
   3 -12  -2   18.95    1.45
   3 -12  -2   20.99    1.19
  -3 -12   2   23.97    1.84
   3  12  -2   20.78    1.92
  -3  12   2   26.01    1.66
   2 -12  -2   10.85    0.80
   2 -12  -2   12.07    1.10
   2 -12  -2   11.49    1.71
  -2 -12   2   11.14    1.26
   2 -12  -2    9.86    0.74
   2 -12  -2   11.59    0.77
  -2  12   2   10.97    1.33
   2  12  -2    9.96    0.95
  -1 -12   2    6.32    1.18
   1 -12  -2    4.53    0.48
   1 -12  -2    4.83    1.06
   1 -12  -2    5.19    0.48
   1 -12  -2    4.90    0.77
  -1  12   2    4.57    0.65
  -1  12   2    5.60    0.87
   1  12  -2    4.54    0.80
   0 -12   2    2.78    0.76
   0 -12  -2    1.41    0.69
   0 -12  -2    2.98    0.64
   0 -12  -2    3.17    0.31
   0  12  -2    1.33    0.56
   0  12  -2    2.85    0.39
   0  12   2    2.84    0.60
   0  12   2    2.57    0.49
  -1 -12  -2   49.82    2.74
   1 -12   2   51.85    2.46
  -1  12  -2   56.12    1.84
  -1  12  -2   56.21    1.84
   1  12   2   52.74    2.06
   1  12   2   53.84    1.81
  -1  12  -2   53.18    2.47
   2 -12   2    0.63    0.46
   2 -12   2    0.11    0.23
   2 -12   2    0.79    0.30
  -2 -12  -2    0.08    0.46
  -2  12  -2    0.82    0.54
   2  12   2    0.29    0.29
  -2  12  -2    0.71    0.36
   2  12   2    0.34    0.28
  -2  12  -2    0.44    0.35
   3 -12   2   58.34    2.51
   3 -12   2   62.66    2.72
   3 -12   2   58.73    2.21
  -3 -12  -2   57.72    3.17
  -3  12  -2   59.63    2.82
  -3  12  -2   63.62    2.41
   3  12   2   60.12    1.91
  -3  12  -2   62.60    2.41
   3  12   2   61.76    2.11
  -4 -12  -2   26.33    1.02
   4 -12   2   27.44    1.83
  -4 -12  -2   24.34    2.15
   4 -12   2   27.24    1.54
  -4  12  -2   27.80    1.68
  -4  12  -2   27.25    1.93
   4  12   2   27.97    1.46
  -4  12  -2   27.54    1.69
  -5 -12  -2    0.15    0.26
   5 -12   2    0.21    0.36
   5 -12   2    0.24    0.45
  -5 -12  -2    0.43    0.58
  -5  12  -2    0.09    0.42
  -5  12  -2    0.21    0.39
  -5  12  -2   -0.11    0.33
   5  12   2   -0.53    0.26
  -6 -12  -2    0.60    0.42
   6 -12   2    0.27    0.47
   6 -12   2    0.44    0.42
  -6 -12  -2   -0.14    0.32
   6  12   2   -0.14    0.46
  -6  12  -2   -0.08    0.36
  -6  12  -2    0.70    0.49
  -6  12  -2   -0.26    0.34
  -7 -12  -2    0.92    0.46
   7 -12   2    0.41    0.53
   7 -12   2   -0.07    0.45
  -7 -12  -2   -0.65    0.39
  -7  12  -2    0.60    0.70
  -7  12  -2    0.39    0.50
   7  12   2    0.18    0.48
  -7  12  -2   -0.50    0.40
  -8 -12  -2    0.67    0.58
  -8 -12  -2    0.17    0.55
   8 -12   2    0.68    0.63
   8 -12   2    0.89    0.65
  -8  12  -2    0.25    0.98
   8  12   2   -0.52    0.51
  -8  12  -2    2.01    0.80
  -8  12  -2    0.14    0.60
  -9 -12  -2    3.35    0.90
   9 -12   2    1.84    0.95
   9 -12   2    2.28    0.88
  -9  12  -2    1.95    0.74
   9  12   2    0.15    0.64
   9 -13  -2    2.08    0.93
   9 -13  -2    1.83    1.02
  -9  13   2    1.94    0.87
   9  13  -2    3.07    0.68
   9  13  -2    2.00    0.69
  -9  13   2    2.64    0.91
   8 -13  -2   -0.05    0.54
   8 -13  -2    0.21    0.57
  -8  13   2    0.59    0.55
  -8  13   2   -0.66    0.36
   8  13  -2    0.18    0.40
   8  13  -2   -0.44    0.30
   7 -13  -2    3.92    0.96
   7 -13  -2    2.63    0.96
  -7  13   2    4.23    0.95
   7  13  -2    2.87    0.59
   7  13  -2    3.45    0.62
  -7  13   2    2.77    0.77
   6 -13  -2    0.71    0.55
   6 -13  -2    0.89    0.48
  -6  13   2    0.75    0.47
  -6  13   2    1.51    0.58
   6  13  -2    0.77    0.37
   6  13  -2    1.02    0.36
   5 -13  -2    9.59    1.64
  -5  13   2    8.35    1.45
   5  13  -2    4.75    0.68
   4 -13  -2    2.57    0.81
   4 -13  -2    2.57    0.61
  -4 -13   2    3.15    0.86
   4 -13  -2    2.53    0.64
   4 -13  -2    2.55    0.57
   4  13  -2    4.68    0.82
  -4  13   2    3.14    0.86
  -3 -13   2   13.88    1.52
   3 -13  -2   13.99    1.13
   3 -13  -2   11.81    1.60
   3 -13  -2   12.85    0.95
   3 -13  -2   12.25    1.23
  -3  13   2   11.25    1.23
   3  13  -2   14.94    1.14
   2 -13  -2    7.62    1.39
  -2 -13   2    8.98    1.38
   2 -13  -2    7.15    1.01
   2 -13  -2    8.22    0.69
   2 -13  -2    7.32    0.65
   2  13  -2    8.29    0.93
  -2  13   2    8.16    1.20
   1 -13  -2    0.15    0.46
   1 -13  -2    1.63    0.55
  -1 -13   2    0.17    0.35
   1  13  -2    0.37    0.38
  -1  13   2    0.56    0.35
  -1  13   2    0.59    0.44
   0 -13  -2    6.28    1.11
   0 -13   2    8.70    1.34
   0  13   2    5.63    0.63
   0  13   2    5.76    0.85
   0  13  -2    6.51    0.51
   0  13  -2    5.56    0.95
   1 -13   2    2.38    0.73
  -1 -13  -2    3.05    0.95
  -1  13  -2    1.48    0.62
   1  13   2    2.18    0.56
  -1  13  -2    0.97    0.35
   1  13   2    1.51    0.42
  -1  13  -2    1.59    0.42
   2 -13   2    3.02    0.78
  -2 -13  -2    3.20    0.96
   2 -13   2    3.73    0.52
   2 -13   2    4.06    0.53
  -2  13  -2    3.54    0.65
   2  13   2    3.18    0.79
  -2  13  -2    3.01    0.70
  -2  13  -2    3.68    0.63
   2  13   2    4.05    0.59
  -3 -13  -2   -0.04    0.46
   3 -13   2   -0.52    0.28
   3 -13   2    0.42    0.31
   3 -13   2   -0.17    0.25
   3  13   2    0.00    0.22
  -3  13  -2    0.94    0.59
   3  13   2   -0.19    0.26
  -3  13  -2    0.02    0.32
  -3  13  -2   -0.16    0.30
   4 -13   2    2.25    0.58
  -4 -13  -2    2.25    0.99
   4 -13   2    2.84    0.79
  -4  13  -2    4.02    1.23
  -4  13  -2    3.43    0.91
   4  13   2    1.91    0.50
  -4  13  -2    1.29    0.74
  -5 -13  -2    1.72    0.95
   5 -13   2    1.58    0.71
  -5 -13  -2    1.48    0.32
  -5  13  -2    1.62    0.64
  -5  13  -2    1.85    0.69
  -5  13  -2    0.34    0.40
   5  13   2    1.32    0.50
  -6 -13  -2    7.59    0.70
   6 -13   2    5.57    1.08
   6 -13   2    5.91    1.01
   6  13   2    6.87    0.99
  -6  13  -2    8.09    1.27
  -6  13  -2    6.92    1.19
  -6  13  -2    4.77    0.97
   7 -13   2    3.05    0.90
   7 -13   2    3.88    1.09
  -7 -13  -2    1.87    0.56
  -7  13  -2    3.34    0.95
  -7  13  -2    3.92    0.94
  -7  13  -2    3.41    0.97
   8 -13   2    1.66    0.83
  -8 -13  -2    1.53    0.95
  -8 -13  -2   -0.78    0.52
   8 -13   2    1.61    0.86
  -8  13  -2    1.49    0.71
  -8  13  -2    0.61    0.62
   8  13   2   -0.18    0.53
   9 -14  -2    1.16    0.81
   9 -14  -2    0.97    0.84
   9  14  -2    1.26    0.66
  -9  14   2    0.92    0.75
   9  14  -2    1.76    0.57
  -9  14   2    2.29    0.85
   8 -14  -2    1.12    0.81
   8 -14  -2    1.14    0.69
   8  14  -2    2.31    0.61
  -8  14   2    0.69    0.67
   8  14  -2    2.01    0.56
  -8  14   2    0.06    0.57
   7 -14  -2    3.78    0.93
   7 -14  -2    4.04    1.25
  -7  14   2    2.03    0.81
  -7  14   2    2.76    0.76
   7  14  -2    3.80    0.61
   7  14  -2    4.14    0.64
   6 -14  -2    0.28    0.36
   6 -14  -2   -0.11    0.51
  -6  14   2    0.14    0.40
   5 -14  -2    0.86    0.61
   5  14  -2    2.34    0.55
  -5  14   2    2.33    0.85
   4 -14  -2   22.03    1.37
   4 -14  -2   18.91    1.84
  -4 -14   2   21.79    2.00
   4 -14  -2   21.11    1.35
   4  14  -2   21.99    1.35
  -4  14   2   21.53    1.72
   3 -14  -2    6.59    0.73
   3 -14  -2    7.94    1.48
  -3 -14   2    5.91    1.26
   3 -14  -2    7.38    0.71
   3 -14  -2    5.89    1.03
   3  14  -2    6.29    0.96
  -3  14   2    7.09    1.20
   2 -14  -2    2.05    0.42
   2 -14  -2    1.58    0.52
   2 -14  -2    1.82    0.38
  -2 -14   2    2.51    0.84
   2 -14  -2    1.97    0.79
  -2  14   2    2.78    0.70
   2  14  -2    2.04    0.54
  -1 -14   2   34.48    2.24
   1 -14  -2   32.61    2.34
  -1  14   2   31.56    1.86
   1  14  -2   34.04    1.93
   0 -14   2    1.27    0.66
   0 -14  -2    0.58    0.56
   0  14  -2    1.52    0.57
   0  14   2    1.42    0.39
   0  14   2    0.63    0.48
  -1 -14  -2    2.21    0.85
   1 -14   2    2.68    0.80
  -1  14  -2    2.24    0.46
  -1  14  -2    2.14    0.68
  -1  14  -2    2.53    0.46
   1  14   2    2.38    0.59
   1  14   2    2.09    0.43
   2 -14   2   10.11    1.47
  -2 -14  -2    8.43    1.62
  -2  14  -2    6.87    0.76
   2  14   2    9.75    0.75
   2  14   2    7.44    0.82
  -2  14  -2    8.46    0.83
  -2  14  -2    9.09    1.25
  -3 -14  -2   55.70    3.29
   3 -14   2   58.09    2.08
   3 -14   2   55.01    2.80
   3 -14   2   51.36    1.96
   3  14   2   57.04    1.98
   3  14   2   55.43    1.96
  -3  14  -2   50.64    3.86
  -3  14  -2   55.55    2.29
  -3  14  -2   50.77    2.65
   4 -14   2   18.98    1.65
  -4 -14  -2   18.22    1.99
   4 -14   2   17.11    1.25
  -4  14  -2   15.61    1.32
  -4  14  -2   17.65    1.66
   4  14   2   18.59    1.17
  -4  14  -2   20.54    1.48
   5 -14   2   -0.70    0.26
  -5 -14  -2    0.41    0.65
  -5  14  -2   -0.14    0.34
   5  14   2   -0.26    0.33
  -5  14  -2    0.37    0.42
  -5  14  -2   -0.41    0.36
   6 -14   2    1.20    0.62
   6 -14   2    0.71    0.62
  -6  14  -2    0.97    0.56
  -6  14  -2    0.98    0.54
   6  14   2    1.44    0.55
  -6  14  -2    1.01    0.59
   7 -14   2    0.95    0.63
   7 -14   2    1.10    0.69
  -7  14  -2    0.14    0.50
  -7  14  -2    0.37    0.49
   7  14   2    0.97    0.50
   8 -14   2    5.66    1.26
   8 -14   2    4.00    1.12
  -8  14  -2    5.38    1.22
  -8  14  -2    5.43    1.34
   8  14   2    4.79    1.00
   8 -15  -2    1.65    0.85
   8 -15  -2    3.35    1.08
  -8  15   2    2.14    0.85
   7 -15  -2   -0.69    0.47
   7 -15  -2    0.51    0.66
  -7  15   2    0.28    0.50
   6 -15  -2    8.58    1.71
   6 -15  -2    9.21    1.28
  -6  15   2    7.01    1.22
   5 -15  -2    1.09    0.48
   5 -15  -2    0.71    0.81
  -5  15   2    2.29    0.83
   5  15  -2    0.00    0.33
  -4 -15   2   10.97    1.85
   4 -15  -2   14.67    1.68
   4 -15  -2   11.34    1.01
  -4  15   2    8.20    1.23
   4  15  -2   15.42    1.16
   3 -15  -2   -0.02    0.46
   3 -15  -2    0.02    0.26
   3 -15  -2    0.31    0.32
  -3 -15   2    0.46    0.54
   3  15  -2    0.30    0.41
  -3  15   2   -0.36    0.38
  -2 -15   2    0.98    0.65
   2 -15  -2    1.00    0.70
   2  15  -2    0.25    0.41
  -2  15   2    1.25    0.61
  -1 -15   2    2.54    0.91
   1 -15  -2    1.99    0.79
   1  15  -2    2.51    0.70
  -1  15   2    1.05    0.56
   0 -15   2   36.40    2.31
   0 -15  -2   32.86    2.46
   0  15   2   34.33    1.92
   0  15  -2   33.23    2.07
  -1 -15  -2    0.02    0.49
   1  15   2    0.58    0.31
  -1  15  -2    0.37    0.27
  -1  15  -2   -0.23    0.31
   1  15   2    0.64    0.41
  -2 -15  -2    1.44    0.86
   2 -15   2    2.28    0.86
  -2  15  -2    1.39    0.51
  -2  15  -2    2.02    0.48
   2  15   2    1.58    0.43
   2  15   2    2.17    0.56
  -2  15  -2    1.37    0.81
   3 -15   2    7.76    1.40
   3 -15   2    8.78    0.76
  -3 -15  -2    7.85    1.63
  -3  15  -2    7.84    1.04
  -3  15  -2    6.93    1.13
   3  15   2    9.63    0.80
  -3  15  -2   10.24    0.99
   3  15   2    9.02    0.82
  -4 -15  -2    2.38    1.19
   4 -15   2    1.45    0.52
   4 -15   2    1.33    0.67
  -4  15  -2    1.79    0.55
   4  15   2    1.47    0.46
  -4  15  -2    1.70    0.60
  -4  15  -2    2.18    0.72
  -5 -15  -2    2.09    1.00
   5 -15   2    1.05    0.61
   5 -15   2    0.81    0.49
  -5  15  -2    1.69    0.72
  -5  15  -2    1.69    0.62
   5  15   2    1.38    0.48
  -5  15  -2    1.75    0.63
   6 -15   2    1.37    0.73
  -6  15  -2    0.42    0.64
  -6  15  -2    1.31    0.66
   6  15   2   -0.43    0.43
  -6  15  -2    0.73    0.51
   7 -15   2    5.44    1.56
   7 -15   2    4.23    0.88
  -7  15  -2    2.70    0.79
  -7  15  -2    3.38    1.02
   7  15   2    2.51    0.74
  -7  15  -2    1.64    0.77
   8 -16  -2   -0.23    0.55
   8 -16  -2   -0.35    0.69
  -8  16   2    0.42    0.59
   7 -16  -2    0.49    0.70
   7 -16  -2   -0.89    0.48
  -7  16   2    0.23    0.58
   6 -16  -2    0.04    0.51
   6 -16  -2    0.03    0.38
  -6  16   2    0.21    0.55
   5 -16  -2    0.06    0.44
   5 -16  -2    1.26    0.80
   5  16  -2    0.28    0.34
  -5  16   2    0.43    0.58
  -4 -16   2   -0.32    0.44
   4 -16  -2   -0.53    0.49
   4 -16  -2    0.48    0.35
  -4  16   2   -0.11    0.47
   4  16  -2   -0.14    0.26
  -3 -16   2    0.54    0.61
   3 -16  -2   -0.07    0.48
   3 -16  -2   -0.05    0.32
   3 -16  -2    0.00    0.32
  -3  16   2    0.06    0.42
  -2 -16   2   -0.05    0.45
  -2  16   2    0.72    0.49
   2  16  -2    0.10    0.38
  -1 -16   2   -0.32    0.44
   1 -16  -2    0.19    0.72
   1  16  -2   -0.46    0.27
  -1  16   2    0.29    0.37
   0 -16   2   -0.51    0.39
   0 -16  -2   -0.05    0.57
   0  16  -2    1.09    0.54
   0  16   2   -0.10    0.34
   1 -16   2    3.36    0.96
  -1 -16  -2    2.61    0.92
  -1  16  -2    3.38    0.87
   1  16   2    3.80    0.80
  -2 -16  -2   13.61    2.06
   2 -16   2   16.37    1.65
  -2  16  -2   13.84    1.04
  -2  16  -2   12.78    1.66
   2  16   2   12.67    1.10
   3 -16   2    0.42    0.55
  -3 -16  -2    0.43    0.66
  -3  16  -2    0.65    0.44
  -3  16  -2    0.51    0.55
  -3  16  -2    0.69    0.44
   3  16   2    0.57    0.37
   4 -16   2    3.19    0.71
  -4 -16  -2    1.10    0.81
   4 -16   2    2.90    1.01
  -4  16  -2    1.75    0.71
   4  16   2    3.48    0.64
  -4  16  -2    3.12    0.77
  -4  16  -2    2.55    0.73
   5 -16   2    1.20    0.55
   5 -16   2    1.66    0.85
  -5 -16  -2    1.09    0.88
   5  16   2    1.21    0.45
  -5  16  -2    1.77    0.72
  -5  16  -2    1.97    0.75
  -5  16  -2    2.98    0.82
   6 -16   2   -0.17    0.44
   6 -16   2    0.95    0.49
  -6  16  -2    0.25    0.52
  -6  16  -2   -0.08    0.49
   6  16   2    0.72    0.41
  -6  16  -2   -1.07    0.37
   7 -17  -2    0.42    0.64
  -7  17   2    1.03    0.84
   6 -17  -2    0.56    0.51
   6 -17  -2   -0.56    0.40
  -6  17   2   -0.51    0.48
   5 -17  -2    0.12    0.59
   5 -17  -2    0.94    0.50
  -5  17   2    1.22    0.61
   5  17  -2    0.36    0.32
  -4 -17   2    0.29    0.63
   4 -17  -2    2.23    0.91
   4 -17  -2    1.73    0.56
   4  17  -2    2.50    0.60
  -4  17   2    3.30    0.96
  -3 -17   2    3.50    1.28
   3 -17  -2    2.38    0.86
  -3  17   2    2.39    0.76
   3  17  -2    1.06    0.51
   2 -17  -2   -0.13    0.42
  -2 -17   2    1.21    0.91
   2  17  -2   -0.18    0.34
  -2  17   2    0.15    0.48
   1 -17  -2    3.06    1.11
  -1 -17   2    2.41    0.89
  -1  17   2    2.68    0.72
   1  17  -2    3.19    0.80
   0 -17  -2    3.17    1.09
   0 -17   2    2.40    0.92
   0  17  -2    2.85    0.82
   0  17   2    3.58    0.82
   1 -17   2    0.04    0.48
  -1 -17  -2    0.53    0.70
   1  17   2    0.13    0.34
   2 -17   2    0.47    0.55
  -2 -17  -2   -0.08    0.54
   2  17   2   -0.44    0.31
  -2  17  -2    0.61    0.48
  -3 -17  -2    5.27    1.47
   3 -17   2    6.30    1.38
  -3  17  -2    2.76    0.90
   3  17   2    1.49    0.49
  -3  17  -2    3.01    0.68
   4 -17   2    4.01    1.16
  -4 -17  -2    3.16    1.15
  -4  17  -2    2.60    0.75
  -4  17  -2    3.02    0.74
   5 -17   2    0.72    0.67
   5 -17   2    0.80    0.54
  -5 -17  -2    0.41    0.69
  -5  17  -2    1.73    0.59
  -5  17  -2    1.48    0.66
  -5  17  -2    0.73    0.51
   6 -17   2    0.25    0.62
   6 -17   2    1.12    0.71
  -6  17  -2   -0.05    0.62
  -6  17  -2    0.01    0.48
  -6  17  -2    0.11    0.55
   6 -18  -2    0.89    0.79
   6 -18  -2    1.16    0.74
  -6  18   2   -1.63    1.01
   5 -18  -2    0.94    0.75
   5 -18  -2   -1.12    0.44
  -5  18   2    0.31    0.67
   5  18  -2    0.28    0.34
   4 -18  -2   -0.15    0.53
  -4 -18   2    0.80    0.80
   4  18  -2    0.84    0.48
  -4  18   2    0.43    0.61
   3 -18  -2    5.60    1.49
  -3 -18   2    3.37    1.10
  -3  18   2    5.49    1.12
   3  18  -2    5.46    0.88
  -2 -18   2    3.17    1.02
   2 -18  -2    6.07    1.52
  -2  18   2    3.55    0.88
   2  18  -2    4.04    0.95
  -1 -18   2    0.07    0.61
   1 -18  -2    0.81    0.64
   1  18  -2   -0.63    0.36
  -1  18   2   -0.31    0.30
   0 -18  -2    0.20    0.56
   0 -18   2   -0.28    0.46
   0  18  -2    0.22    0.43
   0  18   2    0.09    0.43
   1 -18   2    2.12    1.03
  -1 -18  -2    0.73    0.80
  -1  18  -2    1.06    0.64
   1  18   2    1.69    0.65
   2 -18   2   -0.46    0.48
  -2 -18  -2   -0.05    0.56
   2  18   2    0.40    0.35
  -2  18  -2    0.25    0.39
  -3 -18  -2    0.55    0.67
   3 -18   2    0.38    0.57
   3  18   2   -0.15    0.35
  -3  18  -2    0.86    0.60
   4 -18   2   -0.11    0.59
  -4 -18  -2   -0.14    0.72
  -4  18  -2    0.59    0.56
  -4  18  -2   -0.13    0.39
   5 -18   2   -0.78    1.00
   5 -18   2    1.95    0.88
  -5 -18  -2   -0.13    0.46
  -5  18  -2   -0.01    0.46
  -5  18  -2   -0.40    0.58
  -4 -19   2    3.82    1.29
   4 -19  -2    1.28    0.92
  -4  19   2    2.60    1.03
   4  19  -2    2.41    0.70
  -3 -19   2    6.74    1.55
   3 -19  -2    4.20    1.27
  -3  19   2    4.95    1.23
   3  19  -2    5.48    1.05
  -2 -19   2   11.51    1.84
   2 -19  -2   10.97    2.02
  -2  19   2   12.90    1.74
   2  19  -2   13.92    1.37
  -1 -19   2   -0.06    0.58
   1 -19  -2   -0.38    0.41
   1  19  -2    0.09    0.48
  -1  19   2   -0.61    0.39
   0 -19  -2    6.46    1.48
   0 -19   2   11.94    2.07
   0  19  -2    8.38    1.32
  -1 -19  -2    3.54    1.20
   1 -19   2    1.72    0.85
   1  19   2    1.22    0.52
  -1  19  -2    2.84    0.81
  -2 -19  -2    0.07    0.69
   2 -19   2    0.19    0.59
   2  19   2    0.83    0.50
  -2  19  -2    1.11    0.68
   3 -19   2   -0.04    0.65
  -3 -19  -2   -0.47    0.45
   3  19   2   -0.23    0.33
   2 -20  -2    1.54    0.99
  -2 -20   2    1.87    1.12
  -2  20   2    0.92    0.69
   2  20  -2    2.63    0.80
   1 -20  -2   -0.09    0.53
  -1 -20   2    0.83    0.79
   1  20  -2    0.10    0.48
  -1  20   2    0.31    0.52
   0 -20  -2    0.75    0.70
   0 -20   2    0.83    0.86
   0  20  -2    2.15    0.83
   0  20   2    2.64    0.85
  -1 -20  -2    4.41    1.27
   1 -20   2   10.01    1.76
  -1  20  -2    6.09    1.18
  12   0  -3    0.51    0.64
 -12   0   3    0.59    0.70
  12   0  -3    0.29    0.62
 -12   0   3    1.27    0.73
 -11   0   3   -0.21    0.37
  11   0  -3   -0.79    0.49
  11   0  -3    0.53    0.44
 -11   0   3    0.13    0.56
  11   0  -3   -0.41    0.42
  10   0  -3    0.08    0.35
 -10   0   3   -0.40    0.27
  10   0  -3   -0.64    0.59
 -10   0   3    0.76    0.57
  10   0  -3   -0.19    0.40
 -10   0   3    0.33    0.49
   9   0  -3   -0.51    0.37
  -9   0   3    0.45    0.49
   9   0  -3   -0.22    0.32
  -9   0   3    0.17    0.31
  -9   0   3   -0.41    0.41
  -8   0   3   -0.05    0.31
   8   0  -3   -0.34    0.27
  -8   0   3    0.22    0.41
  -8   0   3   -0.10    0.37
   8   0  -3    0.08    0.41
   8   0  -3   -0.29    0.24
   8   0  -3    0.03    0.36
   7   0  -3   -0.11    0.30
  -7   0   3    0.16    0.31
   7   0  -3   -0.47    0.24
   7   0  -3    0.18    0.32
   7   0  -3    0.19    0.27
  -7   0   3    0.04    0.34
  -7   0   3    0.24    0.32
  -6   0   3   -0.12    0.29
   6   0  -3    0.26    0.30
  -6   0   3   -0.01    0.30
  -6   0   3    0.47    0.31
   6   0  -3    0.04    0.28
   6   0  -3    0.19    0.24
  -5   0   3   -0.15    0.22
   5   0  -3   -0.27    0.22
   5   0  -3    0.11    0.25
  -5   0   3    0.18    0.30
   5   0  -3   -0.13    0.26
   5   0  -3    0.06    0.28
   4   0  -3   -0.24    0.24
  -4   0   3    0.10    0.23
   4   0  -3    0.16    0.26
   4   0  -3   -0.06    0.21
   4   0  -3    0.20    0.28
  -3   0   3   -0.22    0.17
   3   0  -3    0.00    0.22
  -3   0   3   -0.15    0.21
   3   0  -3   -0.03    0.23
   3   0  -3    0.03    0.21
   2   0  -3   -0.01    0.22
  -2   0   3    0.15    0.23
  -2   0   3   -0.01    0.20
   2   0  -3   -0.09    0.19
  -1   0   3    0.15    0.20
   1   0  -3   -0.14    0.14
   1   0  -3    0.07    0.22
  -1   0   3    0.27    0.26
   0   0  -3   -0.12    0.21
   0   0   3    0.00    0.14
   0   0   3    0.14    0.22
   0   0  -3    0.25    0.16
   1   0   3   -0.06    0.15
  -1   0  -3    0.64    0.32
   1   0   3   -0.18    0.23
   2   0   3   -0.15    0.24
  -2   0  -3    0.13    0.27
   2   0   3    0.17    0.21
  -3   0  -3   -0.02    0.28
   3   0   3   -0.13    0.26
  -4   0  -3   -0.11    0.20
   4   0   3   -0.30    0.19
  -4   0  -3   -0.08    0.29
  -5   0  -3   -0.15    0.21
  -5   0  -3   -0.54    0.26
   5   0   3   -0.02    0.32
  -6   0  -3    0.12    0.29
   6   0   3   -0.17    0.34
  -6   0  -3    0.42    0.42
  -7   0  -3    0.40    0.49
   7   0   3    0.00    0.39
  -7   0  -3   -0.09    0.28
  -8   0  -3    0.34    0.51
   8   0   3    0.25    0.47
  -8   0  -3    0.11    0.34
  -8   0  -3    0.85    0.62
   9   0   3    0.47    0.64
  -9   0  -3   -0.53    0.53
  -9   0  -3   -1.25    0.47
  -9   0  -3   -0.26    0.35
 -10   0  -3   -0.26    0.65
 -10   0  -3    0.30    0.41
 -10   0  -3    0.18    0.68
 -11   0  -3    0.29    0.48
 -11   0  -3    1.37    0.85
 -11   0  -3    0.11    0.95
  12  -1  -3    6.55    1.42
 -12  -1   3    3.11    0.76
 -12  -1   3    5.16    1.20
  12  -1  -3    3.08    0.78
 -12  -1   3    3.59    1.74
  12   1  -3    1.76    0.80
  12   1  -3    4.21    0.72
 -12   1   3    3.97    0.80
 -12   1   3    2.83    0.92
 -12   1   3    4.26    1.06
  12   1  -3    4.58    1.26
  11  -1  -3   -0.55    0.42
 -11  -1   3   -0.14    0.53
 -11  -1   3    0.47    0.41
  11  -1  -3    0.07    0.43
  11  -1  -3    0.40    0.63
 -11  -1   3    1.27    0.70
 -11   1   3   -0.01    0.57
  11   1  -3    0.23    0.42
 -11   1   3    0.59    0.68
  11   1  -3   -0.14    0.52
 -11   1   3   -0.01    0.40
  10  -1  -3    0.44    0.44
  10  -1  -3    1.87    0.73
 -10  -1   3    1.23    0.46
 -10  -1   3    1.32    0.79
  10  -1  -3    2.65    0.78
 -10  -1   3    1.57    0.73
 -10   1   3    3.07    0.92
 -10   1   3    1.67    0.54
  10   1  -3    1.54    0.47
  10   1  -3    0.83    0.55
  -9  -1   3   28.08    1.89
  -9  -1   3   25.82    1.46
   9  -1  -3   26.26    2.13
   9  -1  -3   25.87    1.53
   9  -1  -3   22.65    1.75
  -9  -1   3   24.61    1.78
  -9   1   3   27.77    1.93
   9   1  -3   25.08    1.40
   9   1  -3   28.81    1.91
  -9   1   3   25.32    1.55
   9   1  -3   26.98    1.93
  -9   1   3   25.81    1.92
   8  -1  -3    5.45    1.05
   8  -1  -3    5.15    1.26
  -8  -1   3    5.80    1.01
   8  -1  -3    5.38    0.83
  -8  -1   3    5.50    0.78
  -8  -1   3    4.87    0.92
   8  -1  -3    7.37    1.14
   8   1  -3    4.64    0.88
  -8   1   3    3.74    0.85
  -8   1   3    5.48    0.83
   8   1  -3    4.96    0.93
  -8   1   3    7.15    1.09
   8   1  -3    4.71    0.88
   8   1  -3    6.99    0.74
   7  -1  -3    0.88    0.34
  -7  -1   3    1.09    0.49
  -7  -1   3    0.92    0.39
  -7  -1   3    1.50    0.52
   7  -1  -3    0.92    0.51
   7  -1  -3    1.19    0.51
   7  -1  -3    0.64    0.43
  -7   1   3    1.54    0.55
   7   1  -3    1.29    0.38
   7   1  -3    1.26    0.50
   7   1  -3    0.46    0.42
  -7   1   3    0.83    0.47
   7   1  -3    1.11    0.45
  -7   1   3    1.34    0.49
  -6  -1   3   31.91    1.41
   6  -1  -3   31.79    1.77
   6  -1  -3   35.52    1.82
  -6  -1   3   32.64    1.58
   6  -1  -3   33.13    1.70
  -6  -1   3   33.51    1.65
   6  -1  -3   33.99    1.72
   6   1  -3   36.73    1.73
   6   1  -3   32.66    1.65
   6   1  -3   33.55    1.40
  -6   1   3   31.98    1.68
   6   1  -3   32.59    1.71
  -6   1   3   35.13    1.56
  -6   1   3   31.88    1.68
  -5  -1   3    2.11    0.50
   5  -1  -3    1.50    0.41
   5  -1  -3    1.50    0.43
   5  -1  -3    1.69    0.51
   5  -1  -3    1.17    0.44
  -5  -1   3    1.23    0.36
   5   1  -3    1.32    0.36
   5   1  -3    1.41    0.44
  -5   1   3    1.24    0.45
   5   1  -3    0.87    0.41
  -5   1   3    1.39    0.41
   5   1  -3    2.95    0.60
   4  -1  -3    9.51    0.80
   4  -1  -3    9.48    0.79
   4  -1  -3    8.47    0.81
   4  -1  -3    9.64    0.74
  -4  -1   3    8.61    0.67
  -4   1   3    9.17    0.74
   4   1  -3    9.53    0.68
   4   1  -3    8.87    0.75
   4   1  -3    9.37    0.77
   4   1  -3    8.81    0.76
  -3  -1   3    3.52    0.51
   3  -1  -3    2.25    0.43
  -3  -1   3    1.98    0.34
   3  -1  -3    2.58    0.47
   3  -1  -3    2.06    0.38
   3   1  -3    3.48    0.46
   3   1  -3    2.54    0.44
  -3   1   3    2.74    0.43
   3   1  -3    2.52    0.45
  -3   1   3    3.10    0.49
  -2  -1   3  264.91    5.42
  -2  -1   3  252.17    5.36
   2  -1  -3  260.94    5.43
   2  -1  -3  257.06    5.51
  -2   1   3  257.44    5.42
  -2   1   3  259.92    5.49
   2   1  -3  255.81    5.40
   2   1  -3  253.78    5.40
   1  -1  -3  589.10   11.14
   1  -1  -3  596.75   11.35
  -1  -1   3  585.79   11.23
   1  -1  -3  606.46   11.22
   1   1  -3  561.01   11.21
  -1   1   3  591.62   11.32
  -1   1   3  563.52   11.20
  -1  -1  -3   36.67    1.27
   1  -1   3   36.41    1.41
  -1  -1  -3   35.28    1.40
   1  -1   3   36.44    1.02
   1   1   3   36.16    1.42
   1   1   3   36.07    1.24
  -2  -1  -3    1.31    0.41
   2  -1   3    1.08    0.39
   2   1   3    0.74    0.37
  -2   1  -3    0.96    0.35
   2   1   3    1.50    0.39
   3  -1   3    0.07    0.28
  -3  -1  -3    0.23    0.34
  -3   1  -3    0.58    0.36
   3   1   3   -0.07    0.25
   3   1   3    0.74    0.41
  -4  -1  -3   59.92    1.78
   4  -1   3   59.61    2.36
  -4  -1  -3   58.51    2.32
  -4   1  -3   58.61    1.97
   4   1   3   56.53    2.37
  -4   1  -3   59.52    2.36
  -5  -1  -3    5.77    0.56
   5  -1   3    5.54    0.86
  -5  -1  -3    5.43    0.87
   5   1   3    4.37    0.75
  -5   1  -3    3.82    0.61
  -5   1  -3    5.39    1.12
   6  -1   3   19.46    1.52
  -6  -1  -3   22.41    1.62
  -6  -1  -3   24.29    1.12
   6   1   3   23.08    1.62
  -6   1  -3   19.21    1.56
  -6   1  -3   21.40    1.24
  -7  -1  -3   -0.06    0.43
  -7  -1  -3    0.61    0.55
  -7  -1  -3    0.72    0.35
   7  -1   3   -0.13    0.39
   7   1   3    0.33    0.44
  -7   1  -3   -0.24    0.41
  -7   1  -3    0.22    0.45
   8  -1   3    5.27    1.01
  -8  -1  -3    3.91    0.96
  -8  -1  -3    3.33    1.27
  -8  -1  -3    5.03    0.66
   8   1   3    5.33    1.16
  -8   1  -3    3.86    0.74
  -8   1  -3    6.61    1.23
  -8   1  -3    5.06    1.10
  -9  -1  -3    0.86    0.68
  -9  -1  -3    0.91    0.78
   9  -1   3    1.07    0.71
  -9  -1  -3    1.38    0.70
   9   1   3    1.00    0.67
  -9   1  -3    1.62    0.77
  -9   1  -3    1.05    0.50
  -9   1  -3   -0.12    0.49
 -10  -1  -3    0.44    0.44
 -10  -1  -3   -0.72    0.63
 -10  -1  -3    0.95    0.74
 -10   1  -3   -0.46    0.53
 -10   1  -3    0.47    0.42
 -10   1  -3   -0.49    0.53
  10   1   3    0.60    0.68
 -11  -1  -3    0.87    0.88
 -11  -1  -3    2.27    1.01
 -11   1  -3    0.56    0.89
 -11   1  -3    2.39    0.94
 -11   1  -3    1.39    0.64
  12  -2  -3    0.58    0.73
 -12  -2   3    1.79    0.94
  12  -2  -3    0.54    0.53
 -12  -2   3    0.71    0.45
 -12   2   3   -1.07    0.67
  12   2  -3    0.39    0.71
 -12   2   3    1.06    0.61
 -12   2   3    2.01    0.83
  11  -2  -3    0.87    0.68
 -11  -2   3    0.37    0.63
 -11  -2   3    1.51    0.55
  11  -2  -3    1.13    0.66
  11  -2  -3    1.81    0.63
 -11  -2   3    1.66    0.81
  11   2  -3    0.87    0.65
 -11   2   3    1.13    0.51
  11   2  -3    1.32    0.73
  11   2  -3    1.27    0.43
 -11   2   3    1.93    0.84
 -11   2   3    1.35    0.73
 -10  -2   3    0.47    0.59
  10  -2  -3    0.45    0.53
  10  -2  -3    1.25    0.46
 -10  -2   3    0.10    0.32
  10  -2  -3    0.64    0.52
 -10  -2   3    0.30    0.53
 -10   2   3   -0.89    0.48
 -10   2   3    0.14    0.38
  10   2  -3   -0.11    0.32
  10   2  -3    0.94    0.58
  10   2  -3    0.85    0.58
 -10   2   3    0.34    0.57
   9  -2  -3    7.38    1.03
   9  -2  -3    6.85    1.13
  -9  -2   3    8.79    1.23
  -9  -2   3    8.93    1.29
  -9  -2   3    8.25    0.82
   9  -2  -3    6.93    1.22
   9   2  -3    7.28    1.13
  -9   2   3    5.95    1.68
   9   2  -3    6.16    0.77
   9   2  -3    8.75    1.32
  -9   2   3    5.56    1.05
  -9   2   3    5.81    0.90
   8  -2  -3    2.25    0.60
  -8  -2   3    3.99    0.83
   8  -2  -3    3.34    0.78
   8  -2  -3    3.24    0.78
   8  -2  -3    3.49    0.80
  -8  -2   3    4.15    0.82
  -8  -2   3    2.98    0.56
   8   2  -3    2.29    0.64
  -8   2   3    3.83    0.73
  -8   2   3    2.56    0.76
   8   2  -3    2.30    0.62
  -8   2   3    3.34    0.81
  -7  -2   3   -0.15    0.30
   7  -2  -3   -0.02    0.32
   7  -2  -3    0.65    0.31
   7  -2  -3   -0.02    0.41
   7  -2  -3   -0.28    0.31
  -7  -2   3    0.00    0.32
  -7  -2   3    0.26    0.26
   7   2  -3    0.09    0.33
  -7   2   3   -0.15    0.27
   7   2  -3   -0.36    0.19
   7   2  -3    0.01    0.30
  -7   2   3    0.24    0.39
  -7   2   3    0.90    0.79
   7   2  -3    0.32    0.29
   6  -2  -3    0.23    0.37
   6  -2  -3    0.35    0.33
   6  -2  -3   -0.23    0.21
  -6  -2   3    0.15    0.29
  -6  -2   3   -0.02    0.23
   6   2  -3   -0.02    0.26
   6   2  -3    0.14    0.28
  -6   2   3    0.25    0.35
   6   2  -3    0.47    0.27
   6   2  -3    0.50    0.36
  -6   2   3    0.69    0.47
  -6   2   3   -0.12    0.35
  -5  -2   3   65.13    2.06
   5  -2  -3   70.41    2.52
   5  -2  -3   71.41    2.47
  -5  -2   3   64.13    3.04
   5  -2  -3   69.70    2.43
   5  -2  -3   66.65    2.23
  -5   2   3   69.87    2.30
   5   2  -3   64.30    2.25
   5   2  -3   69.35    2.07
   5   2  -3   69.89    2.30
  -5   2   3   69.90    2.45
  -4  -2   3    1.99    0.38
   4  -2  -3    2.39    0.49
   4  -2  -3    2.83    0.54
   4  -2  -3    2.16    0.40
   4  -2  -3    2.55    0.58
   4   2  -3    1.90    0.43
  -4   2   3    3.01    0.57
   4   2  -3    2.57    0.50
  -4   2   3    2.75    0.51
   4   2  -3    2.50    0.45
   4   2  -3    2.79    0.44
   3  -2  -3   -0.03    0.21
   3  -2  -3   -0.05    0.22
   3  -2  -3    0.43    0.29
   3  -2  -3   -0.35    0.20
  -3  -2   3    0.02    0.21
   3   2  -3   -0.29    0.20
  -3   2   3    0.04    0.23
   3   2  -3    0.03    0.17
  -3   2   3    0.12    0.25
   3   2  -3    0.01    0.20
   2  -2  -3   92.86    2.42
   2  -2  -3   93.76    2.51
  -2  -2   3   90.09    2.27
   2   2  -3   89.48    2.36
  -2   2   3   91.70    2.41
  -2   2   3   95.03    2.49
   2   2  -3   86.13    2.28
   1  -2  -3   13.23    0.76
  -1  -2   3   12.85    0.70
   1  -2  -3   14.18    0.75
   1  -2  -3   14.62    0.82
  -1   2   3   13.35    0.75
  -1   2   3   14.61    0.76
  -1   2   3   14.57    0.81
   1   2  -3   12.84    0.71
   0  -2  -3  171.78    3.69
   0  -2   3  161.43    3.81
   0  -2  -3  175.80    3.95
   0  -2  -3  174.01    3.85
   0   2   3  172.21    3.82
   0   2   3  170.60    3.93
   0   2  -3  164.58    3.82
   0   2   3  169.25    3.70
   1  -2   3    4.90    0.62
  -1  -2  -3    4.69    0.41
  -1  -2  -3    4.87    0.61
  -1  -2  -3    4.86    0.55
  -1   2  -3    4.94    0.59
   1   2   3    3.91    0.54
   1   2   3    4.72    0.52
  -2  -2  -3   69.33    2.23
  -2  -2  -3   73.06    2.27
  -2   2  -3   69.00    2.27
   2   2   3   67.10    2.21
   2   2   3   66.56    2.24
  -3  -2  -3    6.91    1.37
   3  -2   3    6.62    0.84
   3   2   3    4.98    1.01
  -3   2  -3    6.13    0.80
   3   2   3    6.62    0.76
  -4  -2  -3   32.40    1.11
   4  -2   3   29.67    1.62
  -4  -2  -3   28.81    1.58
   4   2   3   29.86    1.62
  -4   2  -3   31.28    1.44
  -4   2  -3   33.21    1.73
   5  -2   3    6.94    0.98
  -5  -2  -3    5.36    0.91
  -5  -2  -3    7.20    0.54
  -5   2  -3    7.88    1.37
  -5   2  -3    7.52    0.79
   5   2   3    5.63    0.88
   6  -2   3    1.61    0.61
  -6  -2  -3    1.15    0.53
  -6  -2  -3    1.25    0.32
   6   2   3    1.09    0.49
  -6   2  -3    1.10    0.60
   7  -2   3   25.64    1.91
  -7  -2  -3   28.70    1.92
  -7  -2  -3   26.27    2.49
  -7   2  -3   28.68    2.00
  -7   2  -3   25.65    1.92
  -7   2  -3   25.50    1.49
   7   2   3   29.78    1.95
  -8  -2  -3    8.14    1.26
   8  -2   3    7.41    1.41
  -8  -2  -3    8.31    0.70
  -8  -2  -3    7.27    1.24
  -8   2  -3    7.87    1.06
  -8   2  -3    8.92    1.45
  -8   2  -3    7.12    1.26
   8   2   3    5.54    1.16
  -9  -2  -3   -0.74    0.52
   9  -2   3    0.74    0.67
  -9  -2  -3    2.18    0.80
  -9   2  -3   -0.01    0.55
   9   2   3    0.62    0.70
  -9   2  -3    0.31    0.40
  -9   2  -3    0.68    0.70
 -10  -2  -3    0.26    0.80
 -10  -2  -3    0.28    0.64
 -10   2  -3    1.18    0.49
  10   2   3    2.55    1.10
 -10   2  -3    1.66    0.80
 -10   2  -3    3.06    1.00
 -11  -2  -3   -0.65    0.83
 -11  -2  -3    0.10    0.67
 -11   2  -3   -0.03    0.50
 -11   2  -3   -1.11    0.58
 -11   2  -3    1.81    0.98
 -12  -3   3   -0.23    0.70
 -12  -3   3    0.29    0.44
  12  -3  -3   -0.81    0.49
  12   3  -3   -0.15    0.43
 -12   3   3   -0.59    0.57
 -12   3   3   -0.40    0.52
  12   3  -3   -0.74    0.35
 -12   3   3    0.00    0.66
  12   3  -3    1.74    0.73
 -11  -3   3    0.51    0.37
 -11  -3   3    0.97    0.67
  11  -3  -3    0.87    0.43
  11  -3  -3   -0.48    0.42
 -11   3   3    1.15    0.60
  11   3  -3   -0.37    0.45
 -11   3   3    0.37    0.63
  11   3  -3    0.93    0.36
  11   3  -3    1.40    0.68
  10  -3  -3    1.55    0.83
  10  -3  -3    0.25    0.48
 -10  -3   3    0.25    0.33
 -10  -3   3    1.07    0.58
  10  -3  -3   -0.44    0.60
 -10  -3   3    1.12    0.58
 -10   3   3    0.23    0.41
  10   3  -3    0.13    0.46
  10   3  -3    0.04    0.48
 -10   3   3    1.20    0.69
  10   3  -3   -0.01    0.28
 -10   3   3   -0.42    0.36
   9  -3  -3    6.32    1.07
  -9  -3   3    7.89    1.16
  -9  -3   3    8.84    0.83
   9  -3  -3    5.49    0.92
   9  -3  -3    6.81    1.16
  -9  -3   3    5.80    1.02
   9   3  -3    7.90    0.86
  -9   3   3    8.03    1.14
  -9   3   3    8.59    1.33
   9   3  -3    8.57    1.24
  -9   3   3    8.18    1.29
   8  -3  -3   46.54    2.40
   8  -3  -3   41.30    2.38
  -8  -3   3   47.89    2.23
   8  -3  -3   48.10    2.16
   8  -3  -3   42.71    2.30
  -8  -3   3   42.79    2.11
  -8  -3   3   49.34    1.83
  -8   3   3   45.06    2.14
  -8   3   3   45.24    3.46
   8   3  -3   46.06    1.73
   8   3  -3   51.14    2.38
  -8   3   3   46.91    2.43
   7  -3  -3    9.17    1.30
   7  -3  -3    7.10    1.06
  -7  -3   3    8.99    0.91
   7  -3  -3    7.17    0.81
   7  -3  -3    6.49    0.98
  -7  -3   3    8.76    0.87
  -7  -3   3    8.60    0.72
  -7   3   3    7.68    0.98
  -7   3   3    9.66    1.23
   7   3  -3    7.68    0.88
   7   3  -3    8.52    0.92
  -7   3   3    7.24    1.07
   7   3  -3    7.55    0.66
   6  -3  -3   30.00    1.62
   6  -3  -3   27.80    1.59
   6  -3  -3   27.30    1.45
   6  -3  -3   28.76    1.68
  -6  -3   3   28.53    1.25
  -6  -3   3   25.55    1.35
  -6   3   3   27.71    1.60
   6   3  -3   26.83    1.19
  -6   3   3   28.11    1.68
   6   3  -3   26.52    1.42
   6   3  -3   25.78    1.42
   6   3  -3   29.03    1.55
   5  -3  -3   94.07    2.92
   5  -3  -3   90.67    3.01
   5  -3  -3   87.68    2.88
  -5  -3   3   91.38    2.56
   5  -3  -3   89.03    2.91
   5   3  -3   93.81    2.74
  -5   3   3   90.88    2.95
   5   3  -3   90.07    2.46
  -5   3   3   89.15    2.79
   5   3  -3   89.97    2.69
   5   3  -3   88.36    2.75
   4  -3  -3   29.21    1.34
   4  -3  -3   25.55    1.31
   4  -3  -3   28.10    1.37
   4  -3  -3   26.29    1.39
   4   3  -3   26.33    1.18
   4   3  -3   25.99    1.22
  -4   3   3   29.08    1.36
  -4   3   3   27.89    1.38
   4   3  -3   25.84    1.11
   4   3  -3   24.07    1.55
   3  -3  -3    6.28    0.65
   3  -3  -3    7.15    0.68
   3  -3  -3    5.96    1.12
   3  -3  -3    7.01    0.70
  -3   3   3    6.17    0.65
  -3   3   3    7.64    0.71
   3   3  -3    6.13    0.53
   3   3  -3    5.91    0.53
   3   3  -3    6.66    0.58
   2  -3  -3   32.12    1.27
   2  -3  -3   34.10    1.43
   2  -3  -3   33.99    1.34
  -2  -3   3   32.70    1.09
  -2   3   3   32.62    1.29
  -2   3   3   34.52    1.34
   2   3  -3   29.69    1.11
  -1  -3   3    0.34    0.22
   1  -3  -3    0.16    0.26
   1  -3  -3    0.66    0.30
   1  -3  -3    0.37    0.22
  -1   3   3    0.22    0.22
  -1   3   3    0.14    0.25
  -1   3   3    0.38    0.25
   1   3  -3    0.53    0.26
   1   3  -3    0.24    0.17
   0  -3   3    4.69    0.49
   0  -3  -3    4.90    0.62
   0  -3  -3    4.47    0.44
   0   3   3    4.64    0.62
   0   3  -3    3.02    0.43
   0   3   3    3.94    0.44
   0   3   3    4.06    0.57
  -1  -3  -3   25.21    1.21
  -1  -3  -3   22.79    0.87
  -1  -3  -3   25.09    1.15
   1  -3   3   23.31    1.11
  -1   3  -3   22.04    1.10
   1   3   3   24.83    1.17
   1   3   3   23.99    0.89
   1   3   3   24.81    1.17
   2  -3   3   46.25    1.78
  -2  -3  -3   49.26    1.91
  -2  -3  -3   46.30    1.75
  -2   3  -3   46.58    1.80
   2   3   3   46.35    1.78
   2   3   3   46.94    1.80
  -3  -3  -3    2.30    0.31
  -3  -3  -3    1.69    0.48
  -3   3  -3    1.03    0.43
   3   3   3    1.66    0.49
   3   3   3    1.83    0.61
  -4  -3  -3    9.48    0.92
   4  -3   3   10.71    0.99
  -4   3  -3   10.63    1.05
   4   3   3   11.64    1.01
  -4   3  -3   10.81    0.91
   5  -3   3   39.37    2.03
  -5  -3  -3   41.82    2.01
  -5   3  -3   37.62    2.02
  -5   3  -3   35.14    2.08
   6  -3   3    3.74    0.82
  -6  -3  -3    3.38    0.77
  -6   3  -3    3.94    0.72
  -6   3  -3    4.18    0.93
   6   3   3    3.70    0.80
  -6   3  -3    3.91    0.90
  -7  -3  -3   17.10    1.57
  -7  -3  -3   19.03    1.56
   7  -3   3   18.73    1.66
   7   3   3   21.09    1.64
  -7   3  -3   18.48    1.35
  -7   3  -3   23.20    1.79
  -7   3  -3   19.00    1.65
  -8  -3  -3    4.75    1.01
  -8  -3  -3    3.87    0.93
   8  -3   3    5.35    1.22
   8   3   3    3.82    0.90
  -8   3  -3    4.59    0.99
  -8   3  -3    5.45    0.91
  -8   3  -3    4.79    1.03
  -9  -3  -3    0.10    0.50
  -9  -3  -3    0.25    0.58
  -9   3  -3    0.30    0.50
  -9   3  -3   -0.09    0.53
  -9   3  -3   -0.49    0.30
   9   3   3    0.26    0.61
 -10  -3  -3    1.53    0.76
 -10  -3  -3    0.28    0.71
  10   3   3   -0.44    0.74
 -10   3  -3    2.05    0.84
 -10   3  -3   -0.14    0.47
 -10   3  -3   -0.26    0.44
 -11  -3  -3    3.56    1.18
 -11  -3  -3    1.85    1.16
 -11   3  -3    2.94    0.97
 -11   3  -3    3.91    1.07
 -11   3  -3    3.83    0.90
  12  -4  -3    3.62    1.09
 -12  -4   3    3.29    1.08
  12   4  -3    2.47    0.90
 -12   4   3    4.52    1.01
  12   4  -3    2.21    0.89
 -12   4   3    4.78    1.21
 -12   4   3    2.37    0.91
 -11  -4   3    3.87    0.97
  11  -4  -3    4.51    1.19
 -11   4   3    4.67    1.22
  11   4  -3    4.98    1.03
  11   4  -3    4.59    0.59
 -11   4   3    3.22    1.07
  11   4  -3    4.80    1.10
 -11   4   3    5.21    1.02
  10  -4  -3    2.14    0.64
 -10  -4   3    0.80    0.51
  10  -4  -3    2.01    0.68
  10  -4  -3    2.28    0.78
  10   4  -3    2.00    0.71
 -10   4   3    2.42    0.77
 -10   4   3    1.40    0.65
  10   4  -3    1.73    0.82
  10   4  -3    1.00    0.52
 -10   4   3    2.22    0.81
   9  -4  -3    4.28    1.10
   9  -4  -3    4.31    0.87
  -9  -4   3    5.52    1.00
   9  -4  -3    6.26    1.21
   9   4  -3    5.73    0.68
  -9   4   3    4.88    0.92
  -9   4   3    3.76    0.89
   9   4  -3    6.79    1.08
  -9   4   3    4.24    0.96
   8  -4  -3   48.93    2.51
   8  -4  -3   47.41    2.44
   8  -4  -3   49.46    2.27
   8  -4  -3   48.54    2.58
  -8   4   3   51.08    2.33
  -8   4   3   48.55    2.51
   8   4  -3   50.82    2.35
  -8   4   3   48.42    2.52
   8   4  -3   46.95    1.71
   7  -4  -3   44.70    2.20
   7  -4  -3   45.64    2.41
   7  -4  -3   44.20    2.21
   7  -4  -3   44.56    2.05
   7   4  -3   45.17    2.04
   7   4  -3   47.85    2.10
  -7   4   3   44.11    2.23
  -7   4   3   44.84    2.07
   6  -4  -3    0.24    0.35
   6  -4  -3   -0.13    0.25
   6  -4  -3    0.73    0.39
   6  -4  -3    0.67    0.36
   6   4  -3    0.47    0.25
  -6   4   3    0.18    0.32
   6   4  -3    0.44    0.35
   6   4  -3    0.37    0.31
   6   4  -3    0.56    0.32
  -6   4   3    0.31    0.35
   5  -4  -3   17.29    1.18
   5  -4  -3   20.27    1.26
   5  -4  -3   18.85    1.18
   5   4  -3   18.19    1.06
   5   4  -3   18.04    0.92
  -5   4   3   18.50    1.20
  -5   4   3   19.15    1.26
   5   4  -3   19.80    1.10
   4  -4  -3    0.13    0.28
   4  -4  -3    0.25    0.32
   4  -4  -3    0.47    0.36
   4  -4  -3    0.04    0.26
   4   4  -3    0.76    0.28
   4   4  -3    0.05    0.23
  -4   4   3    0.61    0.37
   4   4  -3    0.41    0.27
  -4   4   3    0.49    0.35
   4   4  -3    0.28    0.28
   3  -4  -3   97.94    2.70
   3  -4  -3   92.72    2.74
   3  -4  -3   89.74    2.64
   3   4  -3   93.32    2.47
  -3   4   3   94.37    2.73
  -3   4   3   91.37    2.67
   3   4  -3   94.52    2.75
   3   4  -3   87.55    2.34
   3   4  -3   90.50    2.36
   2  -4  -3   16.74    0.93
   2  -4  -3   16.95    0.95
   2  -4  -3   15.74    1.02
  -2  -4   3   15.14    0.68
  -2   4   3   16.04    0.93
  -2   4   3   17.21    0.96
   2   4  -3   15.78    0.86
   2   4  -3   15.48    0.74
  -1  -4   3    4.37    0.41
   1  -4  -3    4.71    0.54
   1  -4  -3    5.47    0.54
   1  -4  -3    4.45    0.59
  -1   4   3    5.17    0.53
   1   4  -3    4.45    0.44
  -1   4   3    5.31    0.61
  -1   4   3    4.90    0.55
   1   4  -3    4.40    0.41
   0  -4  -3    0.12    0.24
   0  -4   3   -0.04    0.18
   0  -4  -3   -0.01    0.18
   0  -4  -3   -0.05    0.23
   0   4  -3    0.26    0.16
   0   4   3    0.43    0.27
   0   4   3   -0.15    0.19
   0   4  -3   -0.12    0.21
   0   4   3   -0.25    0.17
  -1  -4  -3   11.15    0.88
  -1  -4  -3    9.17    0.56
  -1  -4  -3   10.72    0.76
   1  -4   3    9.03    0.71
   1   4   3    9.29    0.76
   1   4   3   10.94    0.84
   1   4   3    9.40    0.56
  -1   4  -3    8.75    0.72
   2  -4   3    8.31    0.76
  -2  -4  -3    8.12    0.75
  -2  -4  -3    9.28    0.92
  -2  -4  -3    8.20    0.48
  -2   4  -3    8.96    0.82
   2   4   3    8.24    0.79
   2   4   3    7.74    0.79
  -3  -4  -3    3.73    0.63
   3  -4   3    3.26    0.58
  -3  -4  -3    4.43    1.03
   3   4   3    4.70    0.73
  -3   4  -3    4.31    0.81
  -3   4  -3    5.30    0.80
  -4  -4  -3   14.28    1.09
   4  -4   3   14.72    1.15
  -4   4  -3   15.62    1.13
   4   4   3   16.87    1.20
  -4   4  -3   15.47    1.23
   5  -4   3    5.32    0.85
   5   4   3    5.67    0.90
  -5   4  -3    5.95    1.03
   6  -4   3    0.13    0.42
  -6  -4  -3    0.02    0.39
   6   4   3    0.54    0.41
  -6   4  -3    0.39    0.39
  -6   4  -3    0.62    0.51
  -7  -4  -3   23.60    1.76
  -7  -4  -3   24.78    1.79
  -7   4  -3   24.75    1.61
   7   4   3   28.34    2.06
  -7   4  -3   26.64    1.95
  -7   4  -3   25.72    1.94
  -8  -4  -3   -0.14    0.50
   8  -4   3    0.60    0.64
  -8  -4  -3    0.92    0.60
  -8   4  -3    0.06    0.50
   8   4   3    0.54    0.56
  -8   4  -3    0.35    0.43
  -8   4  -3    0.22    0.54
  -9  -4  -3   -0.16    0.61
  -9   4  -3    0.29    0.65
   9   4   3   -0.55    0.59
  -9   4  -3    0.02    0.55
  -9   4  -3    0.41    0.44
 -10  -4  -3    0.89    0.78
 -10  -4  -3   -0.04    0.82
  10   4   3    0.44    0.80
 -10   4  -3    0.87    0.63
 -10   4  -3    0.66    0.67
  12  -5  -3    1.38    0.94
 -12  -5   3    0.27    0.69
 -12   5   3   -0.86    0.75
 -12   5   3    1.42    0.74
  12   5  -3    2.43    0.91
  12   5  -3   -1.01    0.49
 -12   5   3   -0.04    0.53
 -11  -5   3    0.09    0.56
  11  -5  -3    0.23    0.82
 -11   5   3    0.48    0.61
  11   5  -3   -0.41    0.44
 -11   5   3   -0.44    0.60
 -11   5   3   -0.39    0.38
  11   5  -3    0.59    0.53
  10  -5  -3    3.48    0.82
 -10  -5   3    3.52    1.10
  10  -5  -3    5.20    1.22
  10   5  -3    3.80    0.94
 -10   5   3    3.44    0.99
 -10   5   3    3.61    0.89
 -10   5   3    3.87    1.00
  10   5  -3    3.60    0.89
   9  -5  -3    3.17    0.91
   9  -5  -3    3.12    0.65
   9  -5  -3    2.61    0.87
  -9   5   3    4.44    1.02
   9   5  -3    2.05    0.71
  -9   5   3    2.38    0.66
   9   5  -3    1.62    0.40
  -9   5   3    1.98    0.74
   8  -5  -3    0.75    0.55
   8  -5  -3    0.95    0.48
   8  -5  -3    1.17    0.56
   8  -5  -3    0.66    0.54
  -8   5   3    0.94    0.59
  -8   5   3    2.00    0.73
   8   5  -3    1.18    0.47
  -8   5   3    0.79    0.69
   7  -5  -3    0.49    0.37
   7  -5  -3    0.80    0.48
   7  -5  -3    1.32    0.55
   7  -5  -3    1.81    0.58
  -7  -5   3    0.66    0.43
  -7   5   3    1.08    0.53
  -7   5   3    1.77    0.57
   7   5  -3    1.27    0.32
   7   5  -3    0.69    0.42
  -7   5   3    0.97    0.53
   7   5  -3    0.54    0.36
   6  -5  -3   20.25    1.37
   6  -5  -3   17.37    1.28
   6  -5  -3   18.99    1.28
   6  -5  -3   20.33    1.44
   6   5  -3   16.69    1.15
   6   5  -3   19.01    1.17
  -6   5   3   18.90    1.30
   6   5  -3   19.92    0.97
  -6   5   3   17.01    2.40
  -6   5   3   17.54    1.31
   6   5  -3   18.28    1.14
   5  -5  -3   23.95    1.39
   5  -5  -3   23.04    1.37
   5  -5  -3   23.84    1.45
   5  -5  -3   21.04    1.29
  -5   5   3   22.69    2.22
   5   5  -3   23.37    1.18
   5   5  -3   23.82    1.23
   5   5  -3   22.11    1.15
  -5   5   3   23.99    1.40
   5   5  -3   22.77    1.05
   4  -5  -3    1.49    0.51
   4  -5  -3    1.00    0.38
   4  -5  -3    1.33    0.45
   4  -5  -3    1.32    0.44
   4   5  -3    1.30    0.36
   4   5  -3    0.81    0.28
   4   5  -3    1.61    0.36
   4   5  -3    1.12    0.32
  -4   5   3    0.93    0.57
   3  -5  -3   12.11    0.87
   3  -5  -3    9.63    0.78
   3  -5  -3    9.12    0.81
   3  -5  -3    8.87    0.92
   3   5  -3    8.63    0.79
   3   5  -3    9.79    0.63
  -3   5   3    9.84    0.83
   3   5  -3    9.61    0.60
  -3   5   3    9.32    0.83
   2  -5  -3    2.42    0.48
   2  -5  -3    3.12    0.53
  -2  -5   3    1.88    0.27
   2  -5  -3    1.89    0.44
   2  -5  -3    3.31    0.68
  -2   5   3    2.78    0.50
   2   5  -3    2.05    0.33
   2   5  -3    2.21    0.47
  -2   5   3    2.08    0.46
   1  -5  -3    3.12    0.59
  -1  -5   3    4.00    0.52
  -1  -5   3    3.28    0.36
   1  -5  -3    3.79    0.51
   1   5  -3    3.37    0.41
  -1   5   3    3.48    0.49
  -1   5   3    3.34    0.50
  -1   5   3    3.71    0.67
   1   5  -3    4.01    0.50
   0  -5  -3    0.38    0.25
   0  -5  -3    0.15    0.34
   0  -5   3    0.37    0.27
   0  -5   3    0.44    0.23
   0  -5  -3    0.56    0.27
   0   5   3    0.56    0.30
   0   5   3    0.97    0.37
   0   5  -3    0.29    0.24
   0   5   3    0.21    0.23
   0   5  -3    0.06    0.17
   1  -5   3    8.25    0.55
  -1  -5  -3    8.13    0.87
  -1  -5  -3    8.90    0.56
  -1  -5  -3    8.44    0.65
   1  -5   3    7.49    0.65
   1   5   3    7.46    0.55
  -1   5  -3    6.80    0.67
   1   5   3    7.67    0.71
   1   5   3    8.25    0.82
   2  -5   3    6.65    0.70
  -2  -5  -3    7.93    0.48
   2  -5   3    7.56    0.61
  -2  -5  -3    7.70    1.05
   2   5   3    7.82    0.76
   2   5   3    8.29    0.50
  -2   5  -3    8.95    0.82
  -3  -5  -3   45.41    2.17
  -3  -5  -3   43.93    1.80
   3  -5   3   46.08    1.92
  -3   5  -3   45.32    2.30
   3   5   3   50.71    1.98
  -3   5  -3   47.54    1.98
   4  -5   3    5.39    0.86
  -4  -5  -3    5.07    0.76
   4   5   3    5.82    0.86
  -4   5  -3    5.70    0.84
  -4   5  -3    5.50    0.92
  -5  -5  -3    1.27    0.49
   5  -5   3    1.92    0.61
   5   5   3    0.86    0.43
  -5   5  -3    1.04    0.45
  -5   5  -3    1.39    0.58
  -6  -5  -3    4.39    0.83
   6  -5   3    5.61    1.09
  -6   5  -3    5.39    0.89
  -6   5  -3    3.45    0.86
  -6   5  -3    3.83    0.86
   6   5   3    5.77    1.01
  -7  -5  -3    1.35    0.58
  -7  -5  -3    0.39    0.49
   7  -5   3    1.61    0.64
  -7   5  -3    1.66    0.60
  -7   5  -3    0.96    0.58
   7   5   3    2.91    0.81
  -7   5  -3    0.48    0.49
  -8  -5  -3    1.60    0.70
  -8  -5  -3    2.27    0.74
   8   5   3    2.03    0.80
  -8   5  -3    2.04    0.82
  -8   5  -3    2.25    0.70
  -8   5  -3    3.39    0.92
  -9  -5  -3    2.15    0.82
  -9  -5  -3    0.59    0.61
   9   5   3    0.24    0.61
  -9   5  -3    0.04    0.54
  -9   5  -3    0.78    0.66
  -9   5  -3   -0.03    0.44
 -10  -5  -3    1.95    0.94
 -10  -5  -3    2.81    0.99
  10   5   3    3.97    1.11
 -10   5  -3    1.40    0.63
 -10   5  -3    1.33    0.73
 -10   5  -3    2.09    0.98
  12  -6  -3   -0.05    0.64
 -12  -6   3   -0.44    0.64
  12   6  -3    1.20    0.74
 -12   6   3    0.85    0.90
 -12   6   3    0.16    0.65
  12   6  -3    0.56    0.53
 -12   6   3    0.77    0.59
  11  -6  -3    1.26    0.69
 -11  -6   3    2.41    0.79
 -11   6   3    1.61    0.83
 -11   6   3   -0.02    0.63
 -11   6   3    3.18    0.83
  11   6  -3    1.46    0.83
  11   6  -3    1.13    0.71
  10  -6  -3    1.36    0.73
 -10   6   3   -0.95    0.41
 -10   6   3    0.01    0.52
  10   6  -3   -0.09    0.41
 -10   6   3   -1.04    0.31
   9  -6  -3    1.30    0.61
  -9  -6   3    1.02    0.50
   9  -6  -3    0.09    0.30
   9  -6  -3    0.86    0.60
  -9   6   3    0.35    0.39
  -9   6   3    0.18    0.44
   9   6  -3    0.86    0.49
  -9   6   3    1.77    0.71
  -8  -6   3    6.92    0.96
   8  -6  -3    7.05    1.16
   8  -6  -3    6.86    1.14
   8  -6  -3    5.99    1.15
   8  -6  -3    4.76    0.97
  -8   6   3    8.69    1.34
   8   6  -3    6.95    0.59
   8   6  -3    7.44    1.02
  -8   6   3    9.75    1.30
  -8   6   3    8.56    1.18
   7  -6  -3    0.72    0.43
   7  -6  -3    0.76    0.49
   7  -6  -3    0.60    0.46
   7   6  -3    0.71    0.39
  -7   6   3    1.02    0.54
  -7   6   3    0.19    0.41
  -7   6   3    1.16    0.57
   7   6  -3    1.09    0.53
   6  -6  -3    0.84    0.42
   6  -6  -3    1.10    0.47
   6  -6  -3    0.38    0.36
   6  -6  -3    0.17    0.27
   6   6  -3    1.30    0.34
   6   6  -3    0.90    0.36
   6   6  -3    1.06    0.39
  -6   6   3    1.14    0.47
  -6   6   3    0.58    0.43
  -6   6   3    0.99    0.52
   6   6  -3    1.03    0.41
   5  -6  -3    6.06    0.91
   5  -6  -3    6.76    0.91
   5  -6  -3    6.05    0.88
   5  -6  -3    4.37    0.66
   5   6  -3    6.05    0.57
   5   6  -3    5.85    0.73
   5   6  -3    6.34    0.63
  -5   6   3    5.10    0.78
  -5   6   3    5.69    0.87
   5   6  -3    5.19    0.65
   4  -6  -3   11.92    0.99
   4  -6  -3   12.65    0.95
   4  -6  -3   11.30    0.92
   4  -6  -3   10.75    0.92
   4  -6  -3   12.11    1.12
   4   6  -3   11.94    0.77
  -4   6   3   13.37    1.95
   4   6  -3   11.83    0.72
   4   6  -3   12.30    0.75
   4   6  -3   11.44    0.89
   3  -6  -3    2.19    0.45
   3  -6  -3    2.10    0.49
   3  -6  -3    2.32    0.49
   3  -6  -3    2.60    0.62
   3  -6  -3    1.20    0.43
   3   6  -3    1.96    0.35
  -3   6   3    2.56    0.57
   3   6  -3    2.33    0.35
  -3   6   3    2.38    0.50
   3   6  -3    3.16    0.61
   2  -6  -3   41.14    1.90
  -2  -6   3   41.51    1.67
   2  -6  -3   43.44    1.58
   2  -6  -3   42.49    1.65
   2  -6  -3   39.22    1.58
   2   6  -3   39.62    1.22
  -2   6   3   44.25    1.71
   2   6  -3   42.21    1.67
  -2   6   3   42.72    1.64
  -1  -6   3   15.90    0.63
  -1  -6   3   16.51    0.93
   1  -6  -3   15.40    1.13
   1   6  -3   15.57    0.73
  -1   6   3   16.94    0.97
   1   6  -3   16.77    0.90
  -1   6   3   16.45    0.96
   0  -6   3   42.80    1.38
   0  -6  -3   44.75    1.52
   0  -6  -3   45.50    1.98
   0  -6   3   41.52    1.50
   0   6   3   46.72    1.66
   0   6  -3   42.53    1.44
   0   6   3   44.87    1.55
   0   6  -3   41.01    1.42
  -1  -6  -3    3.52    1.16
   1  -6   3    3.78    0.55
  -1  -6  -3    3.68    0.46
   1  -6   3    3.12    0.45
   1   6   3    2.56    0.48
   1   6   3    3.43    0.44
  -1   6  -3    2.45    0.47
   2  -6   3   20.51    1.04
   2  -6   3   21.51    1.17
  -2  -6  -3   22.63    0.83
  -2  -6  -3   22.19    1.47
  -2   6  -3   20.88    1.31
   2   6   3   23.02    1.22
   2   6   3   22.99    0.86
  -2   6  -3   24.10    1.27
   3  -6   3   29.99    1.51
  -3  -6  -3   27.31    1.57
   3  -6   3   28.21    1.32
  -3  -6  -3   26.82    2.08
  -3   6  -3   30.85    1.59
  -3   6  -3   28.57    1.56
   3   6   3   28.44    1.46
   4  -6   3    1.56    0.50
  -4  -6  -3    0.47    0.39
   4   6   3    0.37    0.35
  -4   6  -3    0.22    0.35
  -4   6  -3    0.51    0.36
  -5  -6  -3    0.37    0.36
   5  -6   3    0.60    0.42
   5   6   3   -0.53    0.29
  -5   6  -3    0.14    0.38
  -5   6  -3    0.52    0.43
  -5   6  -3    0.31    0.40
  -6  -6  -3    1.46    0.57
   6  -6   3    2.72    1.07
   6   6   3    2.36    0.70
  -6   6  -3    2.09    0.67
  -6   6  -3    1.95    0.72
  -6   6  -3    2.18    0.69
   7  -6   3    8.02    1.26
  -7  -6  -3    5.88    1.03
  -7  -6  -3    5.91    1.03
  -7   6  -3    5.83    1.18
  -7   6  -3    6.19    1.05
   7   6   3    5.77    1.14
  -7   6  -3    7.04    1.28
  -8  -6  -3    0.05    0.49
  -8  -6  -3    0.37    0.54
   8   6   3    0.79    0.71
  -8   6  -3   -0.06    0.43
  -8   6  -3   -0.68    0.54
  -8   6  -3    0.45    0.54
  -9  -6  -3    0.71    0.63
  -9  -6  -3    1.40    0.73
  -9   6  -3    1.72    0.95
   9   6   3    0.02    0.79
  -9   6  -3    0.16    0.56
  -9   6  -3   -0.61    0.74
 -10  -6  -3    0.56    0.94
 -10  -6  -3    2.04    1.13
 -10   6  -3    1.05    0.81
 -10   6  -3    0.12    0.44
  10   6   3    0.00    0.78
 -10   6  -3    2.21    0.93
  12  -7  -3    2.21    0.97
  12   7  -3   -0.89    0.79
 -12   7   3    0.14    0.66
  12   7  -3    0.14    0.66
 -12   7   3    0.66    0.62
  11  -7  -3    4.60    1.19
 -11   7   3    3.12    0.97
  11   7  -3    2.84    0.84
 -11   7   3    4.55    1.09
 -11   7   3    3.89    1.09
  11   7  -3    5.11    1.13
  10  -7  -3    1.00    0.65
  10   7  -3    0.58    0.45
 -10   7   3    0.65    0.62
 -10   7   3    0.97    0.67
  10   7  -3    0.14    0.55
 -10   7   3    0.38    0.41
   9  -7  -3    0.39    0.61
   9  -7  -3   -0.62    0.41
  -9   7   3   -0.32    0.52
  -9   7   3    0.88    0.56
   9   7  -3   -0.43    0.35
   9   7  -3    0.25    0.43
  -9   7   3    0.69    0.55
   8  -7  -3    0.07    0.41
   8  -7  -3    0.05    0.32
   8  -7  -3    0.00    0.43
   8  -7  -3    0.39    0.50
   8   7  -3    0.35    0.42
  -8   7   3    0.10    0.77
  -8   7   3   -0.53    0.34
   8   7  -3    0.47    0.41
  -8   7   3   -0.25    0.36
   7  -7  -3    5.31    0.97
   7  -7  -3    4.01    0.80
   7  -7  -3    3.62    0.68
   7  -7  -3    4.97    0.93
  -7   7   3    6.49    1.11
   7   7  -3    4.36    0.54
  -7   7   3    5.52    1.02
   7   7  -3    3.60    0.70
   7   7  -3    2.77    0.60
  -7   7   3    6.13    1.10
   6  -7  -3   17.60    1.33
   6  -7  -3   17.35    1.33
   6  -7  -3   18.62    1.45
   6  -7  -3   17.40    1.32
   6   7  -3   18.63    1.17
   6   7  -3   19.03    1.14
   6   7  -3   18.25    0.92
   6   7  -3   19.02    1.14
  -6   7   3   18.37    1.41
  -6   7   3   16.31    1.35
   5  -7  -3   12.95    1.06
   5  -7  -3   14.41    1.32
   5  -7  -3   14.97    1.20
   5  -7  -3   14.54    1.15
   5  -7  -3   14.17    1.11
   5   7  -3   16.25    0.91
  -5   7   3   14.55    1.18
   5   7  -3   15.11    0.86
   5   7  -3   14.46    0.92
   5   7  -3   15.35    0.92
  -5   7   3   14.23    1.20
   4  -7  -3    5.75    0.88
   4  -7  -3    5.02    0.74
   4  -7  -3    3.32    0.82
   4  -7  -3    5.80    0.77
   4  -7  -3    5.47    0.75
   4   7  -3    4.33    0.47
   4   7  -3    4.60    0.50
   4   7  -3    4.83    0.48
  -4   7   3    5.22    0.77
   3  -7  -3    7.74    0.76
   3  -7  -3    7.77    0.79
   3  -7  -3    6.73    0.69
   3  -7  -3    7.51    0.73
   3  -7  -3    5.90    0.96
  -3   7   3    6.84    0.74
   3   7  -3    6.56    0.48
   3   7  -3    6.60    0.47
  -3   7   3    7.36    0.82
   2  -7  -3    5.07    0.55
   2  -7  -3    2.94    0.64
   2  -7  -3    4.94    0.64
   2  -7  -3    4.77    0.61
   2  -7  -3    4.72    0.80
  -2  -7   3    4.01    0.67
   2   7  -3    3.74    0.60
  -2   7   3    4.44    0.65
  -2   7   3    4.66    0.71
   2   7  -3    3.19    0.37
  -1  -7   3   11.53    0.88
   1  -7  -3   12.43    1.09
   1  -7  -3   11.78    0.85
   1   7  -3   12.09    0.63
  -1   7   3   10.61    0.85
  -1   7   3   11.88    0.83
   0  -7  -3    0.13    0.37
   0  -7   3   -0.02    0.19
   0  -7  -3    0.18    0.23
   0  -7   3    0.17    0.27
   0   7   3   -0.07    0.24
   0   7   3    0.13    0.25
   0   7  -3    0.37    0.27
   0   7  -3    0.22    0.23
   1  -7   3    1.40    0.39
  -1  -7  -3    1.34    0.33
  -1  -7  -3    0.75    0.40
   1  -7   3    1.58    0.37
   1   7   3    1.67    0.34
  -1   7  -3    1.61    0.43
   1   7   3    0.84    0.37
   2  -7   3    4.89    0.70
  -2  -7  -3    4.49    0.42
  -2  -7  -3    2.84    0.66
   2  -7   3    4.19    0.63
   2   7   3    4.40    0.43
  -2   7  -3    4.84    0.81
  -2   7  -3    4.54    0.69
   2   7   3    5.39    0.74
  -3  -7  -3    0.63    0.52
   3  -7   3    0.67    0.35
  -3  -7  -3    0.35    0.25
   3  -7   3    0.24    0.28
   3   7   3    0.22    0.27
  -3   7  -3    0.89    0.42
  -3   7  -3    1.05    0.48
   4  -7   3    0.65    0.43
  -4  -7  -3    0.00    0.20
  -4  -7  -3    0.32    0.39
   4  -7   3    0.27    0.33
  -4   7  -3    0.30    0.36
  -4   7  -3    0.38    0.39
   5  -7   3    3.77    0.81
  -5  -7  -3    2.60    0.63
   5   7   3    4.61    0.84
  -5   7  -3    4.16    0.87
  -5   7  -3    3.50    0.83
  -5   7  -3    3.41    0.77
  -6  -7  -3    2.17    0.64
   6  -7   3    2.11    0.69
  -6   7  -3    2.34    0.70
  -6   7  -3    3.28    1.02
   6   7   3    2.53    0.71
  -7  -7  -3    2.97    0.72
  -7   7  -3    3.40    0.90
  -7   7  -3    3.95    0.87
  -7   7  -3    4.96    1.09
   7   7   3    3.73    0.91
  -8  -7  -3   -0.13    0.44
  -8   7  -3    0.29    0.50
  -8   7  -3    0.03    0.55
  -8   7  -3   -0.40    0.48
   8   7   3   -0.46    0.54
  -9  -7  -3   -0.41    0.52
  -9  -7  -3    0.96    0.65
  -9   7  -3    0.60    0.60
   9   7   3    0.81    0.65
  -9   7  -3   -0.35    0.61
  -9   7  -3   -0.15    0.46
 -10  -7  -3    0.11    0.83
 -10  -7  -3    0.77    0.69
 -10   7  -3   -0.04    0.53
 -10   7  -3   -0.51    0.56
 -10   7  -3    1.26    0.72
  10   7   3    3.36    1.10
  11  -8  -3    1.98    0.90
 -11   8   3    0.18    0.59
 -11   8   3    1.62    0.69
 -11   8   3    1.33    0.75
  11   8  -3    1.85    0.73
  11   8  -3    1.36    0.66
  10  -8  -3    0.71    0.62
  10   8  -3   -0.21    0.40
  10   8  -3    0.71    0.52
 -10   8   3    0.64    0.76
 -10   8   3    0.30    0.50
 -10   8   3   -0.09    0.45
   9  -8  -3   -0.64    0.42
   9   8  -3   -0.20    0.38
   9   8  -3   -0.09    0.38
  -9   8   3   -0.20    0.38
  -9   8   3   -0.46    0.42
  -9   8   3    0.13    0.47
   8  -8  -3    1.21    0.56
   8  -8  -3    0.06    0.33
   8  -8  -3    0.71    0.57
  -8   8   3    0.79    0.51
  -8   8   3    0.90    0.51
   8   8  -3    0.63    0.43
   8   8  -3    0.83    0.48
  -8   8   3    1.03    0.52
   7  -8  -3   12.26    1.23
   7  -8  -3   12.65    1.23
   7  -8  -3   12.34    1.34
   7  -8  -3   13.31    1.30
   7   8  -3   13.20    1.08
  -7   8   3   14.50    2.23
  -7   8   3   14.50    1.29
   7   8  -3   11.90    0.75
   7   8  -3   11.65    1.00
   6  -8  -3    2.24    0.67
   6  -8  -3    2.71    0.71
   6  -8  -3    2.64    0.64
   6  -8  -3    2.84    0.69
   6  -8  -3    2.85    0.80
   6   8  -3    2.22    0.52
  -6   8   3    3.19    0.79
   6   8  -3    2.55    0.46
   6   8  -3    2.04    0.47
  -6   8   3    2.98    0.76
   5  -8  -3    0.02    0.32
   5  -8  -3    0.28    0.37
   5  -8  -3    0.19    0.25
   5  -8  -3    0.47    0.37
   5  -8  -3    0.11    0.28
   5   8  -3    0.89    0.33
   5   8  -3    0.49    0.45
  -5   8   3    0.62    0.43
   5   8  -3    0.65    0.29
   5   8  -3    1.26    0.35
  -5   8   3    0.33    0.40
   4  -8  -3    3.88    0.71
   4  -8  -3    4.88    0.75
   4  -8  -3    2.72    0.69
   4  -8  -3    5.03    0.77
   4  -8  -3    3.88    0.72
   4   8  -3    4.28    0.48
   4   8  -3    4.91    0.46
  -4   8   3    6.18    0.97
   4   8  -3    4.49    0.44
   3  -8  -3   24.01    1.70
   3  -8  -3   27.83    1.36
   3  -8  -3   26.00    1.38
   3  -8  -3   26.21    1.33
   3  -8  -3   29.64    1.54
   3   8  -3   27.04    0.89
  -3   8   3   28.81    1.45
  -3   8   3   27.10    1.51
   2  -8  -3    9.78    0.75
   2  -8  -3    9.17    1.02
   2  -8  -3   10.64    0.89
   2  -8  -3   10.69    0.77
  -2  -8   3    8.50    0.90
   2   8  -3    8.82    0.84
  -2   8   3   12.05    0.89
  -2   8   3    9.42    0.89
   1  -8  -3  122.09    3.09
   1  -8  -3  121.00    3.90
  -1  -8   3  117.81    3.40
   1  -8  -3  122.86    3.32
   1   8  -3  117.24    3.30
   1   8  -3  116.44    2.69
  -1   8   3  123.32    3.26
  -1   8   3  119.52    3.32
   0  -8  -3    8.09    1.16
   0  -8   3    5.74    0.45
   0  -8  -3    6.36    0.73
   0  -8  -3    6.28    0.60
   0  -8   3    6.08    0.81
   0   8  -3    6.19    0.78
   0   8   3    5.85    0.63
   0   8  -3    4.49    0.83
   0   8   3    5.67    0.64
  -1  -8  -3   29.96    1.25
  -1  -8  -3   29.37    1.21
   1  -8   3   29.75    1.22
   1  -8   3   29.42    1.36
   1   8   3   29.20    1.35
   1   8   3   27.17    1.19
  -1   8  -3   28.08    1.56
  -1   8  -3   28.33    1.27
  -2  -8  -3    7.66    0.67
   2  -8   3    7.19    0.70
   2  -8   3    7.78    0.72
  -2  -8  -3    6.62    0.51
  -2  -8  -3    6.04    0.98
  -2   8  -3    8.07    1.06
   2   8   3    6.94    0.54
  -2   8  -3    6.43    0.74
   3  -8   3   -0.26    0.19
   3  -8   3    0.22    0.27
  -3  -8  -3    0.14    0.40
  -3  -8  -3   -0.24    0.26
   3   8   3   -0.02    0.27
  -3   8  -3    0.78    0.40
  -3   8  -3   -0.32    0.25
   4  -8   3    5.51    0.85
  -4  -8  -3    5.71    1.18
   4  -8   3    5.64    0.85
   4   8   3    5.21    0.84
  -4   8  -3    6.01    1.00
  -4   8  -3    6.42    0.98
  -4   8  -3    6.37    1.00
   5  -8   3    2.52    0.66
   5  -8   3    2.77    0.67
  -5   8  -3    1.38    0.58
   5   8   3    1.43    0.55
  -5   8  -3    1.53    0.59
  -5   8  -3    1.79    0.61
  -6  -8  -3   19.52    1.41
  -6  -8  -3   21.84    1.78
   6  -8   3   17.26    1.52
  -6   8  -3   19.65    1.63
  -6   8  -3   19.56    1.63
   6   8   3   19.08    1.51
  -6   8  -3   18.92    1.55
  -7  -8  -3   25.70    2.07
  -7  -8  -3   23.98    1.65
  -7   8  -3   25.69    1.97
   7   8   3   24.09    1.77
  -7   8  -3   22.12    2.22
  -7   8  -3   23.25    1.82
  -8  -8  -3    0.78    0.58
  -8   8  -3   -0.42    0.48
  -8   8  -3    0.15    0.53
  -8   8  -3   -0.25    0.49
   8   8   3    0.76    0.60
  -9  -8  -3    1.41    0.98
  -9  -8  -3    0.66    0.73
  -9   8  -3    1.09    0.65
   9   8   3    0.54    0.63
  -9   8  -3    1.08    0.71
  -9   8  -3    0.49    0.49
 -10  -8  -3    1.77    0.89
 -10  -8  -3   -0.24    0.74
 -10   8  -3    1.15    0.75
 -10   8  -3    1.70    0.91
 -10   8  -3   -0.21    0.74
  10   8   3    1.51    0.90
  11  -9  -3    0.16    0.68
 -11   9   3   -0.14    0.50
  11   9  -3    0.31    0.52
  11   9  -3   -0.21    0.53
 -11   9   3    0.53    0.63
  10  -9  -3   -0.64    0.58
  10   9  -3   -0.08    0.43
 -10   9   3   -0.32    0.46
 -10   9   3    0.48    0.48
  10   9  -3   -0.46    0.48
   9  -9  -3   -0.42    0.53
  -9   9   3    0.15    0.58
  -9   9   3    0.44    0.68
   9   9  -3   -0.55    0.33
  -9   9   3    1.08    0.58
   9   9  -3    0.53    0.56
   8  -9  -3    0.75    0.63
   8   9  -3    0.66    0.42
   8   9  -3    0.41    0.40
  -8   9   3    0.51    0.54
  -8   9   3    0.30    0.42
   7  -9  -3   14.25    1.35
   7  -9  -3   12.27    1.35
   7  -9  -3   14.28    1.35
   7  -9  -3   14.43    1.64
   7  -9  -3   16.50    1.43
  -7   9   3   14.71    1.42
   7   9  -3   13.93    1.07
  -7   9   3   15.09    1.41
   7   9  -3   13.98    1.12
   6  -9  -3   22.22    1.60
   6  -9  -3   22.73    1.87
   6  -9  -3   22.28    3.17
   6  -9  -3   24.13    2.05
   6  -9  -3   20.25    1.44
   6   9  -3   20.96    1.16
  -6   9   3   21.74    1.61
  -6   9   3   21.69    1.62
   6   9  -3   18.00    1.20
   6   9  -3   21.05    1.20
   5  -9  -3    2.38    0.81
   5  -9  -3    1.38    0.51
   5  -9  -3    2.14    0.58
   5  -9  -3    1.92    0.52
   5  -9  -3    2.30    0.57
   5   9  -3    1.98    0.41
   5   9  -3    2.71    0.52
   5   9  -3    1.84    0.41
  -5   9   3    1.99    0.61
   4  -9  -3   19.86    1.27
   4  -9  -3   20.77    1.40
   4  -9  -3   21.92    1.36
   4  -9  -3   17.97    1.53
   4  -9  -3   21.77    1.29
   4   9  -3   20.02    0.83
   4   9  -3   20.74    0.85
  -4   9   3   21.28    1.45
   3  -9  -3   69.62    2.52
   3  -9  -3   68.45    2.32
   3  -9  -3   67.65    2.92
  -3  -9   3   68.72    2.76
   3  -9  -3   66.99    2.55
   3  -9  -3   65.82    2.30
  -3   9   3   72.08    2.48
  -3   9   3   70.42    2.63
   2  -9  -3   94.25    2.68
   2  -9  -3   90.69    2.64
   2  -9  -3   92.72    2.98
   2  -9  -3   93.09    3.42
  -2  -9   3   89.98    4.36
  -2   9   3   93.45    2.81
  -2   9   3   90.83    2.99
   1  -9  -3    0.68    0.30
   1  -9  -3    1.04    0.33
   1  -9  -3    0.83    0.49
  -1  -9   3    0.69    0.42
   1  -9  -3    1.14    0.32
   1  -9  -3    1.75    0.59
   1   9  -3    0.53    0.24
  -1   9   3    0.33    0.35
  -1   9   3    0.79    0.52
   0  -9  -3   33.40    1.95
   0  -9  -3   31.04    1.28
   0  -9  -3   31.86    1.43
   0  -9   3   27.81    1.48
   0   9   3   32.59    1.46
   0   9   3   32.27    1.41
   0   9  -3   29.75    1.46
   0   9  -3   32.23    1.68
  -1  -9  -3   17.65    1.29
  -1  -9  -3   18.60    0.95
   1  -9   3   16.78    1.10
   1  -9   3   17.32    0.90
  -1  -9  -3   17.86    1.45
   1   9   3   17.69    0.98
  -1   9  -3   17.79    1.01
  -1   9  -3   17.45    1.28
   1   9   3   19.51    1.10
  -1   9  -3   18.89    1.10
   2  -9   3   15.36    1.06
   2  -9   3   13.10    0.91
  -2  -9  -3   15.29    0.90
  -2  -9  -3   14.92    1.40
  -2  -9  -3   13.36    0.76
  -2   9  -3   15.54    1.05
   2   9   3   14.46    1.00
  -2   9  -3   14.16    1.21
   2   9   3   13.02    0.77
   3  -9   3   10.16    0.90
   3  -9   3    9.30    0.94
  -3  -9  -3   11.66    0.85
  -3  -9  -3   12.12    1.63
  -3   9  -3   10.38    1.00
  -3   9  -3   11.57    1.16
   3   9   3    9.78    1.10
  -3   9  -3    9.27    0.96
  -4  -9  -3    3.17    0.60
   4  -9   3    3.65    0.76
   4  -9   3    3.04    0.69
  -4  -9  -3    4.57    1.09
  -4   9  -3    4.48    0.83
  -4   9  -3    3.03    0.80
   4   9   3    3.92    0.74
  -4   9  -3    4.85    0.87
   5  -9   3    0.01    0.31
   5  -9   3    0.41    0.46
   5   9   3    0.57    0.43
  -5   9  -3   -0.17    0.32
  -5   9  -3    0.42    0.38
  -5   9  -3   -0.11    0.30
  -6  -9  -3    9.32    0.96
  -6  -9  -3    8.67    1.50
   6  -9   3    8.33    1.24
  -6   9  -3    7.53    1.22
  -6   9  -3    7.41    1.24
  -6   9  -3    8.98    1.39
   6   9   3    6.51    1.02
  -7  -9  -3    8.89    1.17
  -7   9  -3    8.41    1.36
   7   9   3    5.49    1.03
  -7   9  -3    8.73    1.37
  -7   9  -3    7.58    1.31
  -8  -9  -3   -0.14    0.52
  -8  -9  -3    0.98    0.63
  -8   9  -3    0.85    0.76
  -8   9  -3    2.29    0.86
  -8   9  -3    0.84    0.60
   8   9   3    0.14    0.60
  -9  -9  -3   -0.41    0.66
  -9  -9  -3    0.29    0.60
   9   9   3   -1.20    0.62
  -9   9  -3   -0.54    0.49
  -9   9  -3    0.51    0.66
  -9   9  -3    1.32    0.76
  11 -10  -3    1.18    0.91
  11  10  -3    3.04    0.89
  11  10  -3    0.41    0.54
 -11  10   3    1.09    0.75
 -11  10   3    1.15    0.80
  10 -10  -3   10.33    1.68
  10 -10  -3   12.04    1.91
 -10  10   3   13.42    1.79
 -10  10   3   14.68    2.03
  10  10  -3   11.48    1.26
  10  10  -3   11.75    1.35
   9 -10  -3    2.05    0.80
   9 -10  -3    1.71    0.83
   9  10  -3    1.13    0.60
  -9  10   3    1.35    0.62
  -9  10   3    1.81    0.81
   8 -10  -3   16.22    1.69
   8 -10  -3   16.22    1.82
  -8  10   3   18.50    1.72
   8  10  -3   16.36    1.26
   8  10  -3   17.83    1.33
  -8  10   3   15.91    1.56
   7 -10  -3    2.54    0.73
   7 -10  -3    2.82    0.85
   7 -10  -3    4.29    1.15
   7  10  -3    4.34    0.68
  -7  10   3    2.87    0.77
   7  10  -3    3.22    0.66
   7  10  -3    3.57    0.48
  -7  10   3    2.81    0.80
   6 -10  -3    0.12    0.27
   6 -10  -3    0.25    0.52
   6 -10  -3   -0.28    0.39
   6 -10  -3    0.28    0.33
   6 -10  -3    0.40    0.36
   6  10  -3    0.03    0.24
   6  10  -3    0.04    0.24
  -6  10   3    0.23    0.38
   6  10  -3    0.69    0.34
  -6  10   3    0.61    0.52
   5 -10  -3   11.10    1.63
   5 -10  -3    9.20    0.93
   5 -10  -3    7.93    1.07
   5 -10  -3   10.49    1.00
   5  10  -3    9.67    0.71
   5  10  -3    8.69    0.68
  -5  10   3   10.13    1.34
   4 -10  -3    3.80    0.69
   4 -10  -3    4.05    0.85
   4 -10  -3    3.20    0.92
   4 -10  -3    3.10    0.68
   4 -10  -3    2.80    0.65
  -4  10   3    2.21    0.69
   3 -10  -3    2.06    0.47
   3 -10  -3    2.86    0.56
  -3 -10   3    2.26    0.67
   3 -10  -3    2.42    0.76
   3 -10  -3    1.62    0.46
  -3  10   3    1.28    0.51
  -3  10   3    3.02    0.64
   2 -10  -3    3.95    0.59
   2 -10  -3    3.94    0.62
   2 -10  -3    4.91    0.80
  -2 -10   3    3.84    0.84
   2 -10  -3    4.89    0.66
   2 -10  -3    5.27    1.03
  -2  10   3    3.52    0.62
  -2  10   3    4.15    0.79
   1 -10  -3   16.84    0.91
   1 -10  -3   17.53    1.16
   1 -10  -3   16.30    0.91
   1 -10  -3   17.64    1.47
   1 -10  -3   18.18    1.00
  -1 -10   3   18.86    1.31
   1  10  -3   16.71    1.23
  -1  10   3   17.13    1.03
  -1  10   3   16.20    1.22
   0 -10  -3    6.95    0.72
   0 -10  -3    6.34    0.60
   0 -10  -3    7.09    0.58
   0 -10  -3    7.29    1.22
   0 -10   3    6.47    1.07
   0  10  -3    6.99    0.58
   0  10   3    7.21    0.77
   0  10   3    6.48    0.67
   0  10  -3   10.58    1.28
   1 -10   3    0.70    0.26
  -1 -10  -3    0.87    0.57
   1 -10   3   -0.22    0.24
  -1 -10  -3    0.47    0.25
  -1 -10  -3    0.40    0.28
   1  10   3    0.39    0.28
  -1  10  -3    0.43    0.41
  -1  10  -3    0.34    0.29
   1  10   3    0.50    0.31
  -2 -10  -3    2.10    0.40
  -2 -10  -3    1.67    0.61
  -2 -10  -3    2.64    0.45
   2 -10   3    1.99    0.45
   2 -10   3    1.43    0.74
  -2  10  -3    2.63    0.70
  -2  10  -3    3.03    0.61
   2  10   3    1.83    0.48
  -2  10  -3    1.21    0.43
   2  10   3    1.38    0.36
   3 -10   3    0.33    0.38
  -3 -10  -3    0.29    0.26
   3 -10   3    0.35    0.31
  -3 -10  -3   -0.40    0.34
  -3  10  -3   -0.30    0.24
  -3  10  -3    0.11    0.33
  -3  10  -3    0.10    0.33
   3  10   3    0.39    0.32
   4 -10   3    0.82    0.42
   4 -10   3    0.86    0.40
  -4 -10  -3    0.43    0.38
  -4 -10  -3    0.89    0.65
  -4  10  -3    0.18    0.32
  -4  10  -3   -0.08    0.35
  -4  10  -3    0.40    0.36
   4  10   3    0.65    0.41
  -5 -10  -3    6.88    0.89
   5 -10   3    7.16    1.09
  -5 -10  -3    7.94    0.85
   5  10   3    8.04    1.08
  -5  10  -3    7.13    1.17
  -5  10  -3    6.72    1.16
  -5  10  -3    6.11    1.10
   6 -10   3   16.27    1.47
  -6 -10  -3   19.03    1.30
  -6 -10  -3   17.99    1.31
  -6  10  -3   15.98    2.35
  -6  10  -3   18.21    2.82
  -6  10  -3   21.18    1.73
   6  10   3   17.78    1.50
  -7 -10  -3    3.58    0.81
   7 -10   3    3.18    0.93
   7  10   3    3.11    0.80
  -7  10  -3    3.81    1.00
  -7  10  -3    3.79    1.39
  -7  10  -3    3.96    1.00
   8 -10   3    7.17    1.31
  -8 -10  -3    7.95    1.13
  -8  10  -3    6.15    1.25
  -8  10  -3   10.07    1.67
  -8  10  -3    8.10    1.40
   8  10   3    7.34    1.25
   9 -10   3   -1.07    0.70
  -9 -10  -3   -0.89    0.49
  -9 -10  -3   -1.02    0.59
  -9  10  -3    0.63    0.66
  -9  10  -3   -0.02    0.62
  -9  10  -3    0.67    0.70
  11 -11  -3    2.33    1.03
  11 -11  -3    0.47    0.85
 -11  11   3    0.49    0.82
  11  11  -3    1.48    0.70
 -11  11   3    1.92    0.75
  11  11  -3    0.87    0.72
  10 -11  -3    0.93    0.87
  10 -11  -3    0.47    0.64
  10  11  -3    0.38    0.59
  10  11  -3    0.95    0.65
 -10  11   3    0.85    0.75
 -10  11   3    0.38    0.65
   9 -11  -3    1.80    0.87
   9 -11  -3    3.45    1.05
  -9  11   3    1.98    0.75
  -9  11   3    1.32    0.78
   9  11  -3    3.50    0.94
   9  11  -3    1.80    0.65
   8 -11  -3    1.76    0.70
   8 -11  -3    0.63    0.61
  -8  11   3    0.16    0.49
  -8  11   3    1.40    0.62
   8  11  -3    0.89    0.44
   8  11  -3    0.03    0.41
   7 -11  -3    0.16    0.39
  -7  11   3    0.46    0.42
  -7  11   3    0.05    0.39
   7  11  -3    0.36    0.35
   7  11  -3   -0.19    0.30
   6 -11  -3   -0.29    0.29
   6 -11  -3    0.29    0.55
   6 -11  -3    0.70    0.43
   6  11  -3   -0.24    0.23
  -6  11   3    0.06    0.43
   6  11  -3   -0.05    0.26
   5 -11  -3    2.59    0.62
   5 -11  -3    2.15    0.63
   5 -11  -3    3.76    0.76
   5 -11  -3    2.63    0.79
   5 -11  -3    1.29    0.45
  -5  11   3    3.63    0.82
   4 -11  -3    4.49    1.09
   4 -11  -3    3.68    0.69
   4 -11  -3    4.99    0.74
   4 -11  -3    5.23    1.16
   4 -11  -3    4.74    0.82
  -4  11   3    2.85    0.69
   3 -11  -3    1.43    0.42
  -3 -11   3    0.67    0.49
   3 -11  -3    0.83    0.40
   3 -11  -3    1.40    0.59
   3 -11  -3    1.41    0.46
  -3  11   3    0.81    0.46
  -2 -11   3    5.22    0.94
   2 -11  -3    5.01    0.67
   2 -11  -3    6.67    1.01
   2 -11  -3    5.96    0.66
   2 -11  -3    5.99    0.63
   2 -11  -3    6.31    1.19
   2  11  -3    5.91    0.84
  -2  11   3    4.62    0.81
   1 -11  -3   11.92    1.00
   1 -11  -3   13.49    0.81
   1 -11  -3   11.72    0.82
   1 -11  -3   12.11    1.65
  -1 -11   3   11.38    1.11
   1 -11  -3   10.79    0.78
  -1  11   3   11.23    1.03
   1  11  -3   11.76    0.55
  -1  11   3   10.32    0.86
   1  11  -3    9.33    0.99
   0 -11  -3   42.92    1.49
   0 -11  -3   45.60    1.55
   0 -11  -3   44.68    1.87
   0 -11  -3   44.33    1.49
   0 -11  -3   43.29    2.46
   0 -11   3   44.63    2.07
   0  11  -3   43.18    1.47
   0  11  -3   41.74    2.09
   0  11  -3   44.33    1.47
   0  11   3   45.62    2.27
  -1 -11  -3    9.83    0.99
   1 -11   3    8.13    0.60
  -1 -11  -3    8.63    0.64
   1 -11   3    9.51    0.97
  -1 -11  -3   10.76    1.51
   1  11   3    9.20    0.80
  -1  11  -3    8.62    1.11
  -1  11  -3    9.07    0.76
  -1  11  -3    9.50    0.76
   1  11   3    8.03    0.77
   2 -11   3   31.83    1.75
  -2 -11  -3   34.27    1.41
  -2 -11  -3   33.93    2.28
   2 -11   3   30.52    1.92
  -2 -11  -3   34.37    1.29
  -2  11  -3   30.38    1.88
   2  11   3   33.53    1.65
  -2  11  -3   31.19    1.55
   2  11   3   33.71    1.40
  -2  11  -3   30.25    1.52
   3 -11   3   17.68    1.33
  -3 -11  -3   17.12    0.96
   3 -11   3   17.10    1.18
  -3 -11  -3   15.94    1.67
  -3  11  -3   17.52    1.27
   3  11   3   18.47    0.87
   3  11   3   15.98    1.33
  -3  11  -3   17.48    1.25
  -3  11  -3   17.23    1.48
   4 -11   3    0.14    0.36
  -4 -11  -3    0.14    0.53
  -4 -11  -3   -0.21    0.25
   4 -11   3    0.23    0.33
  -4  11  -3   -0.37    0.29
   4  11   3   -0.44    0.28
  -4  11  -3   -0.48    0.22
  -4  11  -3   -0.30    0.27
   5 -11   3    0.37    0.38
  -5 -11  -3    0.51    0.39
  -5 -11  -3    0.31    0.33
   5  11   3    0.22    0.45
  -5  11  -3    0.46    0.52
  -5  11  -3   -0.12    0.35
  -6 -11  -3    0.09    0.36
   6 -11   3    0.15    0.46
  -6 -11  -3    0.62    0.37
   6  11   3   -0.16    0.37
  -6  11  -3    0.41    0.51
  -6  11  -3   -0.28    0.41
  -6  11  -3    0.28    0.45
   7 -11   3    2.72    0.88
  -7 -11  -3    1.39    0.60
  -7 -11  -3    1.24    0.56
  -7  11  -3    1.18    0.63
  -7  11  -3    0.63    0.57
  -7  11  -3    1.55    0.70
   7  11   3    0.93    0.54
  -8 -11  -3    5.15    1.03
   8 -11   3    4.95    1.16
  -8 -11  -3    4.34    0.88
  -8  11  -3    7.61    1.46
  -8  11  -3    6.36    1.30
  -8  11  -3    4.32    1.03
   8  11   3    5.82    1.10
  -9 -11  -3    1.44    0.81
  -9 -11  -3    1.56    0.86
   9 -11   3    0.55    0.72
  -9  11  -3    1.34    0.70
  -9  11  -3    2.02    0.82
   9  11   3    1.64    0.75
  -9  11  -3    1.05    0.74
  10 -12  -3    1.23    0.77
  10 -12  -3    1.17    0.78
 -10  12   3    1.27    0.73
  10  12  -3    1.23    0.57
  10  12  -3    1.59    0.85
 -10  12   3   -0.06    0.63
   9 -12  -3    1.22    0.83
   9 -12  -3    0.79    0.70
   9  12  -3    2.11    0.57
   9  12  -3   -0.48    0.45
  -9  12   3   -0.66    0.53
  -9  12   3    0.64    0.62
   8 -12  -3    1.00    0.68
   8 -12  -3    1.53    0.71
   8  12  -3    1.66    0.50
  -8  12   3    0.64    0.60
  -8  12   3    2.47    0.88
   8  12  -3    1.82    0.52
   7 -12  -3    7.41    1.20
   7 -12  -3   11.27    1.91
   7  12  -3    9.49    0.86
  -7  12   3    8.30    1.36
   7  12  -3    7.37    0.80
   6 -12  -3   12.76    1.30
   6 -12  -3   14.31    1.98
   6  12  -3   14.21    0.96
   6  12  -3   11.10    0.90
   6  12  -3   14.46    0.91
   6  12  -3   15.41    0.93
   5 -12  -3    0.29    0.49
   5 -12  -3   -0.43    0.23
   5 -12  -3   -0.07    0.33
   5 -12  -3    0.01    0.36
  -5  12   3    0.03    0.37
   5  12  -3    0.57    0.41
   4 -12  -3    3.80    0.68
   4 -12  -3    2.90    0.85
   4 -12  -3    3.41    0.85
   4 -12  -3    4.12    0.73
   4  12  -3    3.22    0.62
  -4  12   3    2.33    0.62
   3 -12  -3   36.39    2.01
   3 -12  -3   38.41    2.33
   3 -12  -3   37.83    1.75
  -3 -12   3   41.32    2.35
   3 -12  -3   38.20    2.39
   3 -12  -3   40.10    1.71
  -3  12   3   41.32    2.14
   3  12  -3   39.34    1.87
   2 -12  -3    6.47    0.80
  -2 -12   3    8.73    1.25
   2 -12  -3    6.74    0.91
   2 -12  -3    7.66    1.36
   2 -12  -3    6.87    0.68
  -2  12   3    6.60    0.89
   2  12  -3    7.96    1.04
  -2  12   3    8.56    1.20
   1 -12  -3    9.01    0.92
  -1 -12   3    9.71    1.10
   1 -12  -3    9.05    0.71
   1 -12  -3    8.26    0.68
   1 -12  -3    8.99    0.67
   1 -12  -3   10.61    1.55
  -1  12   3    8.21    0.81
   1  12  -3    9.94    1.04
  -1  12   3    9.75    1.00
   0 -12  -3   12.34    1.43
   0 -12  -3   10.74    0.72
   0 -12  -3   10.61    0.97
   0 -12   3    9.66    1.11
   0  12  -3   11.68    0.72
   0  12  -3   12.60    1.22
   0  12  -3   12.27    0.75
   0  12   3   11.96    1.04
   0  12   3   12.58    0.93
  -1 -12  -3    3.94    0.94
  -1 -12  -3    4.23    0.45
  -1 -12  -3    3.47    0.61
   1  12   3    4.86    0.71
  -1  12  -3    5.82    1.07
   1  12   3    5.72    0.74
  -1  12  -3    4.26    0.62
  -1  12  -3    4.88    0.66
   2 -12   3    2.90    0.51
   2 -12   3    1.96    0.64
  -2 -12  -3    2.30    0.82
   2 -12   3    2.66    0.50
  -2  12  -3    1.99    0.65
   2  12   3    3.76    0.60
  -2  12  -3    2.81    0.59
   2  12   3    3.66    0.64
  -2  12  -3    2.97    0.62
   3 -12   3   -0.24    0.31
  -3 -12  -3    0.38    0.26
   3 -12   3    0.65    0.46
  -3 -12  -3    1.29    0.69
  -3  12  -3   -0.06    0.27
  -3  12  -3    0.09    0.35
   3  12   3    0.36    0.35
  -3  12  -3    0.45    0.44
   3  12   3    0.15    0.25
  -4 -12  -3    0.22    0.28
  -4 -12  -3    1.05    0.64
   4 -12   3   -0.11    0.36
  -4 -12  -3    0.78    0.37
   4 -12   3    0.73    0.43
  -4  12  -3   -0.02    0.42
  -4  12  -3    0.07    0.34
  -4  12  -3    0.63    0.44
  -5 -12  -3    2.17    0.84
  -5 -12  -3    2.83    0.57
   5 -12   3    3.51    0.87
  -5 -12  -3    2.79    0.57
  -5  12  -3    1.65    0.76
   5  12   3    4.27    0.82
  -5  12  -3    2.57    0.71
  -5  12  -3    4.10    0.92
  -6 -12  -3    3.21    0.65
  -6 -12  -3    3.95    0.75
   6 -12   3    3.88    0.96
  -6  12  -3    2.82    0.79
   6  12   3    3.99    0.91
  -6  12  -3    3.91    0.89
  -6  12  -3    3.68    0.93
  -7 -12  -3    1.22    0.61
   7 -12   3    0.54    0.59
  -7 -12  -3    2.18    0.62
  -7  12  -3    0.89    0.56
  -7  12  -3    2.88    0.85
  -7  12  -3    0.86    0.64
   7  12   3    1.48    0.65
  -8 -12  -3    0.79    0.73
  -8 -12  -3    1.69    0.72
  -8  12  -3    1.96    0.84
   8  12   3    1.29    0.58
  -8  12  -3    1.25    0.75
  -8  12  -3    1.73    0.74
  10 -13  -3    2.08    1.04
  10 -13  -3    3.27    1.20
  10  13  -3    3.09    0.67
  10  13  -3    3.93    0.87
   9 -13  -3    3.49    1.09
   9 -13  -3    3.75    1.12
   9  13  -3    4.93    0.79
  -9  13   3    4.86    1.10
   8 -13  -3    2.20    0.79
   8 -13  -3    1.75    0.82
   8  13  -3    3.74    0.68
   8  13  -3    4.52    0.73
  -8  13   3    4.18    1.05
   7 -13  -3    0.78    0.66
   7 -13  -3    0.26    0.44
  -7  13   3   -0.37    0.33
   7  13  -3    0.03    0.32
   6 -13  -3    0.44    0.60
   6 -13  -3   -0.57    0.32
   6  13  -3    0.51    0.32
   6  13  -3   -0.16    0.28
  -6  13   3   -0.59    0.29
   5 -13  -3   -0.28    0.42
   5 -13  -3    0.17    0.34
  -5  13   3    0.52    0.47
   5  13  -3    0.09    0.36
   4 -13  -3    2.39    0.56
   4 -13  -3    2.20    0.81
   4 -13  -3    1.90    0.64
   4 -13  -3    2.27    0.57
   4  13  -3    1.55    0.52
  -4  13   3    2.33    0.78
   3 -13  -3   -0.20    0.34
   3 -13  -3   -0.25    0.24
  -3 -13   3    0.71    0.53
   3 -13  -3   -0.02    0.24
   3 -13  -3    0.44    0.51
   3 -13  -3    0.90    0.33
   3  13  -3   -0.40    0.28
  -3  13   3   -0.14    0.31
   2 -13  -3    7.74    1.03
   2 -13  -3    6.91    0.69
   2 -13  -3    9.13    1.51
   2 -13  -3    9.34    0.73
  -2 -13   3    8.95    1.29
   2 -13  -3    9.89    0.80
   2  13  -3    9.73    1.03
  -2  13   3    7.87    1.08
  -2  13   3    9.71    0.92
   1 -13  -3   29.62    1.21
   1 -13  -3   29.40    1.22
   1 -13  -3   30.89    2.23
  -1 -13   3   30.59    1.96
   1 -13  -3   28.60    1.24
   1 -13  -3   28.20    1.67
  -1  13   3   30.15    1.76
   1  13  -3   29.35    1.78
  -1  13   3   29.30    1.46
   0 -13  -3   51.60    2.19
   0 -13  -3   48.42    2.86
   0 -13  -3   48.34    1.51
   0 -13   3   51.41    2.48
   0  13   3   52.23    2.22
   0  13  -3   51.13    2.47
   0  13   3   48.94    1.90
   0  13  -3   51.06    1.60
  -1 -13  -3   21.73    1.91
  -1 -13  -3   20.04    0.81
   1 -13   3   20.01    1.52
   1  13   3   22.18    1.32
   1  13   3   21.48    1.20
  -1  13  -3   19.64    1.10
  -1  13  -3   18.18    1.06
  -1  13  -3   18.26    1.54
  -2 -13  -3   17.26    0.75
   2 -13   3   17.02    0.97
   2 -13   3   16.95    0.97
  -2 -13  -3   16.35    1.75
   2 -13   3   19.30    1.48
   2  13   3   17.33    1.11
  -2  13  -3   16.42    1.15
  -2  13  -3   14.94    1.08
  -2  13  -3   18.45    1.59
   2  13   3   16.77    1.22
   3 -13   3    0.96    0.40
   3 -13   3    2.13    0.70
   3 -13   3    1.23    0.41
  -3 -13  -3    0.84    0.64
  -3  13  -3    1.33    0.49
  -3  13  -3    1.21    0.54
   3  13   3    0.87    0.33
  -3  13  -3    1.33    0.53
   3  13   3    0.32    0.37
   4 -13   3    3.57    0.84
   4 -13   3    4.36    0.80
  -4 -13  -3    5.13    1.71
  -4 -13  -3    4.64    0.56
  -4  13  -3    6.89    1.28
  -4  13  -3    4.01    0.83
  -4  13  -3    4.12    0.85
   4  13   3    4.36    0.76
   5 -13   3    0.13    0.43
  -5 -13  -3   -0.04    0.29
   5 -13   3   -0.35    0.27
  -5 -13  -3   -0.24    0.41
  -5  13  -3    0.56    0.37
   5  13   3    0.07    0.40
  -5  13  -3    0.20    0.45
  -5  13  -3    0.81    0.45
   6 -13   3    3.84    0.99
   6 -13   3    2.83    0.77
  -6 -13  -3    1.54    0.55
  -6 -13  -3    1.36    0.54
  -6  13  -3    2.05    0.74
   6  13   3    3.70    0.76
  -6  13  -3    2.97    0.80
  -6  13  -3    2.07    0.72
  -7 -13  -3    0.69    0.52
   7 -13   3   -0.01    0.41
   7 -13   3   -0.60    0.50
  -7  13  -3    0.04    0.45
   7  13   3    0.04    0.54
  -7  13  -3    0.64    0.59
  -7  13  -3   -0.77    0.40
  -8 -13  -3    2.29    0.81
   8 -13   3    0.84    0.89
  -8 -13  -3    4.26    1.30
   8 -13   3    0.94    0.77
  -8  13  -3    1.16    0.75
  -8  13  -3    1.43    0.81
   8  13   3    1.69    0.76
  -8  13  -3    0.51    0.60
   9 -14  -3    9.35    1.65
   9 -14  -3    6.39    1.68
   9  14  -3    4.54    0.81
  -9  14   3    5.79    1.30
   8 -14  -3    0.25    0.61
   8 -14  -3   -1.17    0.46
   8  14  -3    0.91    0.40
   8  14  -3    0.12    0.36
  -8  14   3   -0.46    0.50
   7 -14  -3   -0.11    0.44
   7 -14  -3    1.38    0.82
  -7  14   3   -0.02    0.46
   6 -14  -3    0.71    0.62
   6 -14  -3    0.47    0.36
  -6  14   3    0.86    0.56
   6  14  -3   -0.23    0.29
   6  14  -3    1.29    0.42
   5 -14  -3    1.77    0.76
   5  14  -3    1.50    0.49
  -5  14   3    1.70    0.73
   4 -14  -3    1.08    0.65
  -4 -14   3    0.86    0.64
   4 -14  -3    0.51    0.38
  -4  14   3    0.75    0.51
   4  14  -3    1.19    0.55
   3 -14  -3    0.84    0.75
   3 -14  -3    1.27    0.44
  -3 -14   3    1.35    0.74
   3 -14  -3    1.38    0.46
   3 -14  -3    1.08    0.52
   3 -14  -3    1.56    0.46
   3  14  -3    1.76    0.57
  -3  14   3    1.14    0.55
  -2 -14   3    9.60    1.53
   2 -14  -3    8.96    1.55
   2 -14  -3   10.82    0.84
   2 -14  -3    8.31    0.89
   2 -14  -3   10.16    1.59
   2 -14  -3    9.86    0.76
   2  14  -3   10.48    1.12
  -2  14   3   12.06    1.23
  -1 -14   3    0.32    0.46
   1 -14  -3    0.01    0.21
   1 -14  -3    0.19    0.32
   1 -14  -3   -0.12    0.51
  -1  14   3   -0.57    0.22
  -1  14   3    0.83    0.48
   1  14  -3   -0.18    0.29
   0 -14   3   26.73    1.88
   0 -14  -3   30.17    1.06
   0 -14  -3   29.91    1.69
   0 -14  -3   33.18    2.42
   0  14   3   28.93    1.45
   0  14  -3   30.19    1.96
   0  14  -3   27.50    1.12
   0  14   3   30.25    1.72
  -1 -14  -3    4.68    1.16
   1 -14   3    6.23    1.15
   1  14   3    7.90    0.87
  -1  14  -3    6.93    0.72
  -1  14  -3    6.17    0.75
  -1  14  -3    5.41    1.03
   1  14   3    6.12    0.79
   2 -14   3    3.20    0.82
  -2 -14  -3    3.53    1.11
   2  14   3    3.15    0.61
  -2  14  -3    2.59    0.55
  -2  14  -3    2.55    0.74
  -2  14  -3    4.13    0.70
   3 -14   3    3.82    0.63
  -3 -14  -3    2.79    1.04
   3 -14   3    3.14    0.61
   3 -14   3    3.73    0.91
  -3  14  -3    5.05    1.12
  -3  14  -3    3.99    0.77
  -3  14  -3    3.85    0.76
   3  14   3    4.79    0.76
   3  14   3    4.69    0.64
   4 -14   3    2.68    0.66
  -4 -14  -3    3.72    1.13
   4 -14   3    3.33    0.90
   4  14   3    2.63    0.62
  -4  14  -3    4.54    1.13
  -4  14  -3    2.87    0.71
  -4  14  -3    3.49    0.78
  -5 -14  -3    0.60    0.72
   5 -14   3    0.02    0.46
  -5 -14  -3   -0.18    0.29
  -5  14  -3    0.37    0.47
  -5  14  -3    0.47    0.50
   5  14   3    0.75    0.52
  -5  14  -3   -0.15    0.36
   6 -14   3    0.76    0.58
   6 -14   3    1.18    0.65
  -6 -14  -3    0.02    0.40
  -6  14  -3    0.90    0.63
  -6  14  -3    0.31    0.51
  -6  14  -3    0.73    0.57
   6  14   3   -0.29    0.44
  -7 -14  -3    0.03    0.52
   7 -14   3    0.92    0.60
   7 -14   3    0.71    0.68
  -7 -14  -3    1.01    0.55
  -7  14  -3    0.82    0.74
  -7  14  -3    0.72    0.72
  -7  14  -3    1.67    0.87
   8 -15  -3   -0.35    0.65
   8 -15  -3    0.27    0.67
  -8  15   3    0.04    0.54
   7 -15  -3    0.45    0.54
  -7  15   3    0.38    0.55
   6 -15  -3    1.92    0.97
  -6  15   3    1.04    0.58
   6  15  -3    0.39    0.37
   5 -15  -3    1.31    1.06
   5 -15  -3    2.17    0.61
  -5  15   3    1.67    0.76
   5  15  -3    1.34    0.51
  -4 -15   3    0.64    0.58
   4 -15  -3    0.00    0.79
   4 -15  -3    1.12    0.44
  -4  15   3    0.28    0.48
   4  15  -3    1.04    0.44
   3 -15  -3    1.49    0.40
   3 -15  -3    1.39    0.81
  -3 -15   3    0.69    0.63
   3 -15  -3    0.14    0.34
  -3  15   3   -0.29    0.36
   2 -15  -3   11.40    1.45
  -2 -15   3   10.19    1.59
   2 -15  -3    8.28    1.40
   2 -15  -3   10.46    0.75
   2  15  -3   10.44    1.33
  -2  15   3   11.28    1.25
   1 -15  -3    5.98    1.32
  -1 -15   3    5.58    1.21
   1 -15  -3    3.72    1.43
  -1  15   3    5.71    0.80
  -1  15   3    6.82    1.08
   1  15  -3    4.67    0.92
   0 -15  -3   -0.52    0.37
   0 -15   3    0.28    0.49
   0  15   3    0.67    0.45
   0  15  -3   -0.16    0.42
   0  15  -3   -0.12    0.19
   0  15   3    0.14    0.30
   1 -15   3    7.21    1.26
  -1  15  -3    7.40    1.34
  -1  15  -3    6.85    0.71
  -1  15  -3    6.84    0.69
   1  15   3    6.95    0.97
   1  15   3    7.16    0.77
  -2 -15  -3   -0.51    0.43
   2 -15   3    0.70    0.50
   2  15   3   -0.15    0.31
   2  15   3    0.12    0.29
  -2  15  -3    0.18    0.37
  -2  15  -3   -0.42    0.27
  -3 -15  -3    0.85    0.73
   3 -15   3    0.77    0.59
   3  15   3    1.28    0.46
  -3  15  -3    0.45    0.47
   3  15   3    1.44    0.48
  -3  15  -3    1.18    0.51
  -3  15  -3    0.95    0.52
  -4 -15  -3    2.31    1.05
   4 -15   3    4.84    1.03
   4 -15   3    3.60    0.70
   4  15   3    4.20    0.72
  -4  15  -3    4.88    1.08
  -4  15  -3    3.50    0.78
  -4  15  -3    3.74    0.81
  -5 -15  -3   -0.05    0.60
   5 -15   3    0.26    0.51
   5 -15   3    1.77    0.62
  -5  15  -3    0.90    0.55
  -5  15  -3    0.60    0.56
   5  15   3    1.17    0.51
  -5  15  -3    1.93    0.65
   6 -15   3   -0.65    0.54
   6 -15   3    1.01    0.68
  -6  15  -3   -0.55    0.40
  -6  15  -3    0.51    0.54
  -6  15  -3    0.24    0.48
   6  15   3    0.49    0.52
   7 -15   3    0.27    0.62
   7 -15   3   -0.56    0.46
  -7  15  -3   -0.82    0.50
   7  15   3    0.86    0.68
  -7  15  -3    0.44    0.73
  -7  15  -3   -0.35    0.77
   8 -16  -3    2.84    0.87
   8 -16  -3    2.49    1.04
  -8  16   3    2.92    1.00
   7 -16  -3    1.40    0.83
  -7  16   3    2.27    0.80
   6 -16  -3    3.79    1.25
  -6  16   3    5.95    1.26
   6  16  -3    4.74    0.78
   5 -16  -3    3.99    1.13
  -5  16   3    3.35    0.96
   5  16  -3    3.65    0.71
   4 -16  -3    2.32    0.91
  -4 -16   3    2.97    1.59
   4 -16  -3    2.06    0.61
  -4  16   3    2.38    0.81
   4  16  -3    3.28    0.70
  -3 -16   3    0.73    0.65
  -3  16   3    2.54    0.76
   3  16  -3    0.91    0.50
  -2 -16   3    6.78    1.40
   2 -16  -3    8.27    1.60
  -2  16   3    5.49    1.00
   2  16  -3    6.25    1.07
  -1 -16   3    0.28    0.55
   1 -16  -3    0.05    0.49
   1  16  -3    0.84    0.52
  -1  16   3    1.10    0.50
   0 -16  -3   -0.35    0.51
   0 -16   3    0.09    0.55
   0  16   3    0.04    0.38
   0  16   3   -0.04    0.30
  -1 -16  -3    0.21    0.53
   1 -16   3    0.37    0.58
  -1  16  -3    0.01    0.40
  -1  16  -3    0.20    0.31
  -1  16  -3    0.32    0.34
   1  16   3    0.36    0.40
   1  16   3    0.46    0.32
   2 -16   3    2.61    0.81
  -2 -16  -3    2.85    0.95
   2  16   3    4.85    0.80
  -2  16  -3    2.93    0.63
  -2  16  -3    4.65    0.75
   2  16   3    3.89    0.63
  -2  16  -3    3.10    0.79
   3 -16   3    1.72    0.81
  -3 -16  -3    0.89    0.70
  -3  16  -3    0.25    0.49
  -3  16  -3    1.19    0.48
  -3  16  -3    0.97    0.51
   3  16   3    1.76    0.47
   4 -16   3    0.31    0.55
  -4 -16  -3    0.44    0.75
   4 -16   3    0.97    0.48
  -4  16  -3   -0.34    0.51
  -4  16  -3    0.18    0.41
   4  16   3    0.80    0.44
  -4  16  -3    0.34    0.43
  -5 -16  -3    1.65    0.94
   5 -16   3    3.50    0.98
   5 -16   3    2.06    0.71
   5  16   3    3.55    0.75
  -5  16  -3    2.76    0.99
  -5  16  -3    1.73    0.68
  -5  16  -3    2.35    0.75
   6 -16   3    1.63    0.74
   6 -16   3    1.99    1.34
  -6  16  -3    0.71    0.90
  -6  16  -3    1.24    0.85
   6  16   3    2.30    0.98
  -6  16  -3    1.32    1.26
   7 -17  -3    2.06    0.99
  -7  17   3    3.76    1.59
   6 -17  -3    4.10    1.31
   6 -17  -3    4.20    0.91
  -6  17   3    4.13    1.07
   6  17  -3    3.60    0.63
   5 -17  -3    9.00    1.19
   5 -17  -3    5.48    1.48
  -5  17   3    7.97    1.43
   5  17  -3    7.13    0.98
   4 -17  -3    7.48    1.68
  -4 -17   3    4.69    1.27
   4  17  -3    4.46    0.88
  -4  17   3    5.34    1.21
   3 -17  -3    0.64    0.67
  -3 -17   3   -0.29    0.53
   3  17  -3   -0.46    0.29
  -3  17   3   -0.02    0.35
  -2 -17   3   -0.20    0.51
   2 -17  -3    0.69    0.77
  -2  17   3    0.35    0.47
   2  17  -3    0.64    0.48
  -1 -17   3    2.34    0.95
   1 -17  -3    1.42    0.85
   1  17  -3    1.77    0.71
  -1  17   3    1.59    0.72
   0 -17   3    0.39    0.55
   0 -17  -3   -0.38    0.51
   0  17   3   -0.38    0.29
   0  17  -3   -0.50    0.35
  -1 -17  -3    0.98    0.74
   1 -17   3    1.76    0.74
  -1  17  -3    1.70    0.65
   1  17   3    1.06    0.49
   1  17   3    2.07    0.52
   2 -17   3    0.54    0.60
  -2 -17  -3    0.71    0.84
  -2  17  -3    0.18    0.35
  -2  17  -3   -0.10    0.31
   2  17   3    0.11    0.35
  -2  17  -3    0.17    0.49
   2  17   3   -0.19    0.29
  -3 -17  -3    0.91    0.66
   3 -17   3    0.41    0.52
  -3  17  -3    0.51    0.52
   3  17   3   -0.03    0.34
  -3  17  -3    0.27    0.39
   3  17   3    0.64    0.47
  -4 -17  -3    1.10    0.92
   4 -17   3    0.51    0.58
  -4  17  -3   -0.07    0.52
  -4  17  -3    1.31    0.55
   4  17   3   -0.42    0.54
  -4  17  -3    0.34    0.48
   5 -17   3    1.27    0.62
  -5 -17  -3    1.05    0.88
  -5  17  -3    1.32    0.74
   5  17   3   -0.03    0.51
  -5  17  -3    1.62    0.65
  -5  17  -3    0.98    0.78
   6 -18  -3   -0.19    0.54
   6 -18  -3    0.76    0.65
   6  18  -3    0.12    0.36
  -6  18   3    0.01    0.87
   5 -18  -3    5.98    1.51
  -5  18   3    6.73    1.37
   5  18  -3    4.42    0.82
   4 -18  -3    2.57    1.03
   4 -18  -3    3.08    0.65
   4  18  -3    1.50    0.54
  -4  18   3    2.62    0.88
   3 -18  -3    4.51    1.39
  -3 -18   3    4.49    1.19
  -3  18   3    5.91    1.16
   3  18  -3    5.11    1.01
  -2 -18   3    0.28    0.63
   2 -18  -3   -0.33    0.51
   2  18  -3   -0.52    0.46
  -2  18   3   -0.05    0.43
  -1 -18   3    0.35    0.95
   1 -18  -3    0.60    0.62
   1  18  -3    0.63    0.41
  -1  18   3    0.65    0.47
   0 -18  -3   -0.26    0.48
   0 -18   3   -1.29    0.36
   0  18  -3    1.33    0.56
   0  18   3    0.39    0.47
   1 -18   3    0.36    0.59
  -1 -18  -3   -0.56    0.47
  -1  18  -3   -0.58    0.40
   1  18   3   -0.21    0.37
   2 -18   3    1.37    0.77
  -2 -18  -3    0.58    0.77
  -2  18  -3    0.83    0.43
  -2  18  -3    2.16    0.79
   2  18   3    1.45    0.54
  -3 -18  -3    1.70    0.99
   3 -18   3    4.49    1.34
  -3  18  -3    2.70    0.69
   3  18   3    2.94    0.65
  -3  18  -3    3.98    0.79
  -3  18  -3    3.50    0.95
  -4 -18  -3   -0.67    0.53
   4 -18   3    1.04    0.76
  -4  18  -3    0.94    0.48
  -4  18  -3    0.99    0.56
  -4  18  -3    1.17    0.58
   4 -19  -3    6.27    1.44
  -4  19   3    5.23    1.16
   4  19  -3    6.29    1.05
  -3 -19   3   -0.23    0.52
   3 -19  -3    0.94    0.68
  -3  19   3    1.11    0.62
   3  19  -3    0.37    0.50
  -2 -19   3   -0.80    0.50
   2 -19  -3    1.50    0.99
   2  19  -3   -0.57    0.42
  -2  19   3   -0.04    0.47
   1 -19  -3    0.07    0.56
  -1 -19   3    0.39    0.61
  -1  19   3    0.42    0.45
   1  19  -3   -0.49    0.43
   0 -19  -3    6.12    1.63
   0 -19   3    7.37    1.59
   0  19  -3    8.06    1.36
   0  19   3    5.57    1.03
  -1 -19  -3   -0.25    0.55
  -1  19  -3   -1.48    0.45
   1  19   3   -0.13    0.38
  -2 -19  -3    1.35    0.93
   2 -19   3    1.36    1.18
   2  19   3    0.93    0.52
  -3 -19  -3    0.71    0.71
   3 -19   3    1.03    0.76
   3  19   3    1.32    0.49
  -3  19  -3   -0.49    0.99
  -2 -20   3    4.64    1.37
   2 -20  -3    3.94    1.45
  -2  20   3    4.21    1.14
   2  20  -3    3.73    0.91
   1 -20  -3    0.36    0.62
  -1 -20   3   -0.36    0.59
  -1  20   3    0.25    0.44
   1  20  -3    1.31    0.59
   0 -20   3    2.30    0.94
   0 -20  -3    2.10    0.99
   0  20  -3    0.28    0.58
   0  20   3    0.75    0.53
 -13   0   4    3.22    1.22
  13   0  -4    3.24    0.76
  13   0  -4    2.52    1.18
 -13   0   4    3.17    0.80
 -12   0   4    1.09    0.59
  12   0  -4    1.12    0.70
  12   0  -4    2.00    0.91
  12   0  -4    2.56    0.69
 -12   0   4    3.90    1.14
  11   0  -4    0.93    0.68
 -11   0   4    0.23    0.59
  11   0  -4    0.23    0.38
 -11   0   4    0.43    0.37
  11   0  -4    0.82    0.68
  10   0  -4    9.70    1.39
  10   0  -4    9.65    1.01
  10   0  -4   10.27    1.50
 -10   0   4   13.15    1.47
 -10   0   4   11.49    1.12
  -9   0   4   12.08    1.31
  -9   0   4   12.12    1.11
   9   0  -4   11.01    1.26
   9   0  -4    8.67    1.94
   9   0  -4   10.71    1.54
   9   0  -4   12.13    1.05
   8   0  -4    7.64    1.11
  -8   0   4    6.45    1.03
   8   0  -4    5.95    0.81
   8   0  -4    9.33    1.04
   8   0  -4    7.42    1.13
  -8   0   4    7.78    0.88
   7   0  -4    1.09    0.44
  -7   0   4    0.87    0.45
   7   0  -4    0.21    0.36
   7   0  -4    0.79    0.42
  -7   0   4    0.50    0.36
   7   0  -4    0.40    0.33
   6   0  -4   11.40    0.98
   6   0  -4   11.14    1.01
   6   0  -4   10.32    1.00
   6   0  -4    9.85    1.06
  -6   0   4    9.52    0.85
   5   0  -4   12.18    0.97
   5   0  -4   11.94    0.89
   5   0  -4   11.48    1.01
  -5   0   4   12.77    0.92
   5   0  -4   11.99    0.96
   4   0  -4    8.45    0.83
  -4   0   4    9.90    0.80
  -4   0   4    8.95    0.80
   4   0  -4   10.16    0.85
   4   0  -4    8.37    0.73
  -3   0   4    3.93    0.58
   3   0  -4    3.80    0.55
   3   0  -4    3.71    0.57
  -3   0   4    4.97    0.69
  -2   0   4   -0.08    0.22
   2   0  -4    0.18    0.26
   2   0  -4    0.05    0.23
  -2   0   4    0.11    0.24
   1   0  -4  269.08    5.76
  -1   0   4  271.15    5.86
   1   0  -4  268.86    5.39
   1   0  -4  265.66    5.84
   0   0  -4  242.80    5.48
   0   0   4  244.01    5.50
   0   0  -4  244.81    4.89
   0   0   4  244.16    4.87
  -1   0  -4   36.24    1.20
  -1   0  -4   35.92    1.56
   1   0   4   34.85    1.17
  -2   0  -4  105.98    3.12
   2   0   4   98.12    3.54
   2   0   4   99.40    2.66
  -3   0  -4   -0.18    0.28
   3   0   4    0.42    0.28
   3   0   4   -0.03    0.29
  -4   0  -4   54.07    2.35
   4   0   4   55.92    2.46
  -5   0  -4    1.85    0.66
  -5   0  -4    2.15    0.50
   5   0   4    2.59    0.69
  -6   0  -4    5.86    1.02
  -6   0  -4    5.44    0.75
   6   0   4    5.92    0.96
  -7   0  -4   41.41    2.47
   7   0   4   41.57    2.46
  -7   0  -4   40.55    1.77
  -8   0  -4   10.22    1.58
   8   0   4   13.12    2.12
  -8   0  -4   12.48    1.03
  -8   0  -4   10.44    1.58
  -9   0  -4    0.71    0.56
   9   0   4    1.31    0.80
  -9   0  -4    0.80    0.39
  -9   0  -4    0.72    0.66
 -10   0  -4    1.17    0.83
 -10   0  -4    1.07    0.80
 -10   0  -4    0.17    0.46
  13  -1  -4    5.76    1.49
 -13  -1   4    5.89    1.40
 -13  -1   4    6.55    1.04
  13   1  -4    6.39    1.01
  13   1  -4    4.09    1.16
 -13   1   4    6.89    1.51
 -13   1   4    4.22    1.13
  12  -1  -4   -0.72    0.80
 -12  -1   4   -0.43    0.57
 -12  -1   4   -1.11    0.38
  12  -1  -4    0.34    0.54
  12  -1  -4   -0.04    0.60
  12   1  -4   -0.54    0.33
  12   1  -4    0.98    0.72
 -12   1   4    0.80    0.55
 -12   1   4    0.61    0.68
  12   1  -4   -0.47    0.57
  11  -1  -4   -0.02    0.57
  11  -1  -4    0.48    0.47
  11  -1  -4    0.54    0.69
 -11  -1   4    1.91    0.78
 -11  -1   4    0.30    0.40
  11   1  -4    0.94    0.57
  11   1  -4   -0.91    0.38
 -11   1   4    0.64    0.46
  11   1  -4    0.14    0.36
 -11   1   4    0.13    0.63
 -10  -1   4    1.24    0.71
 -10  -1   4    0.26    0.39
  10  -1  -4    1.79    0.53
  10  -1  -4    0.62    0.57
  10  -1  -4    1.17    0.71
  10   1  -4    0.70    0.40
 -10   1   4    0.99    0.48
  10   1  -4    0.59    0.48
  10   1  -4    0.99    0.65
 -10   1   4    0.09    0.55
  -9  -1   4   14.66    1.39
   9  -1  -4   19.92    1.62
   9  -1  -4   16.88    2.88
   9  -1  -4   18.89    1.31
   9  -1  -4   17.60    1.50
  -9  -1   4   15.58    1.19
   9   1  -4   15.93    1.15
  -9   1   4   18.93    1.35
   9   1  -4   14.41    1.46
   9   1  -4   17.18    1.51
  -9   1   4   16.90    1.56
   9   1  -4   18.52    1.54
   8  -1  -4   13.31    1.05
   8  -1  -4   15.37    1.32
   8  -1  -4   11.97    1.30
   8  -1  -4   12.79    1.24
  -8  -1   4   13.50    1.06
  -8  -1   4   13.23    1.24
   8   1  -4   15.49    1.30
   8   1  -4   14.98    1.27
   8   1  -4   11.13    1.23
   8   1  -4   12.62    0.99
  -8   1   4   12.56    1.08
  -8   1   4   14.39    1.35
   7  -1  -4    1.64    0.44
   7  -1  -4    1.80    0.61
  -7  -1   4    1.97    0.58
   7  -1  -4    2.23    0.63
   7  -1  -4    2.88    0.69
  -7  -1   4    2.05    0.58
   7   1  -4    1.40    0.52
   7   1  -4    1.34    0.54
   7   1  -4    1.84    0.56
   7   1  -4    1.41    0.38
  -7   1   4    1.23    0.50
  -7   1   4    1.80    0.52
   6  -1  -4   55.87    2.26
  -6  -1   4   52.97    1.96
   6  -1  -4   54.03    2.05
   6  -1  -4   52.13    2.20
   6  -1  -4   53.71    2.68
  -6   1   4   50.84    2.05
   6   1  -4   52.43    1.94
   6   1  -4   53.12    2.16
   6   1  -4   54.19    2.18
   6   1  -4   59.52    2.34
  -5  -1   4   14.82    0.98
   5  -1  -4   17.22    1.15
   5  -1  -4   15.30    1.10
   5  -1  -4   15.12    1.01
   5  -1  -4   16.08    1.18
   5   1  -4   16.66    1.00
  -5   1   4   16.71    1.06
   5   1  -4   17.94    1.13
   5   1  -4   15.52    1.06
  -4  -1   4   63.64    2.11
   4  -1  -4   60.97    2.15
   4  -1  -4   62.03    2.22
   4  -1  -4   64.01    2.11
   4  -1  -4   59.53    2.06
  -4  -1   4   62.86    2.05
   4   1  -4   62.91    2.11
  -4   1   4   64.21    2.20
   4   1  -4   61.86    2.15
  -4   1   4   60.32    2.07
   4   1  -4   62.58    2.10
  -3  -1   4    4.52    0.60
   3  -1  -4    3.66    0.58
   3  -1  -4    2.80    0.59
   3   1  -4    3.09    0.50
  -3   1   4    3.47    0.57
   3   1  -4    2.48    0.44
  -3   1   4    3.34    0.52
  -2  -1   4    0.19    0.24
   2  -1  -4    0.27    0.22
   2  -1  -4    0.23    0.25
  -2   1   4   -0.01    0.24
   2   1  -4    0.30    0.19
  -2   1   4   -0.07    0.15
   2   1  -4   -0.22    0.22
   1  -1  -4  250.15    5.59
   1  -1  -4  253.96    5.27
   1  -1  -4  265.38    5.45
  -1  -1   4  241.01    5.48
  -1   1   4  257.68    5.61
   1   1  -4  257.42    5.49
   1   1  -4  242.53    5.49
  -1   1   4  247.70    5.42
   0  -1  -4  153.66    3.79
   0  -1  -4  151.65    3.55
   0  -1  -4  150.58    3.40
   0  -1   4  152.84    3.77
   0   1   4  145.87    3.37
   0   1   4  151.43    3.78
   0   1  -4  146.93    3.71
   1  -1   4    0.03    0.23
  -1  -1  -4   -0.03    0.23
   1  -1   4   -0.01    0.14
  -1  -1  -4   -0.03    0.27
   1   1   4    0.18    0.23
   1   1   4    0.13    0.29
  -1   1  -4    0.30    0.29
  -2  -1  -4   17.86    1.17
   2  -1   4   16.40    0.83
   2  -1   4   18.13    1.17
  -2   1  -4   19.33    1.22
   2   1   4   18.67    0.99
   2   1   4   18.76    1.19
   3  -1   4   26.76    1.25
   3  -1   4   30.34    1.61
   3   1   4   28.09    1.38
   3   1   4   26.34    1.52
  -3   1  -4   27.07    1.54
  -4  -1  -4    0.08    0.36
   4  -1   4    0.49    0.32
   4  -1   4    0.21    0.29
   4   1   4    0.25    0.37
   5  -1   4    6.36    0.97
  -5  -1  -4    6.18    0.97
  -5  -1  -4    7.48    0.67
  -5   1  -4    7.77    1.14
   5   1   4    6.51    1.06
  -5   1  -4    7.23    0.76
   6  -1   4    4.11    0.93
  -6  -1  -4    2.28    0.47
  -6   1  -4    3.05    0.63
   6   1   4    2.82    0.71
  -6   1  -4    2.61    0.74
  -7  -1  -4    3.01    0.86
   7  -1   4    2.57    0.72
  -7  -1  -4    1.73    0.44
  -7   1  -4    1.48    0.68
  -7   1  -4    2.25    0.59
   7   1   4    2.11    0.73
   8  -1   4    3.18    0.93
  -8  -1  -4    2.14    0.84
  -8  -1  -4    2.52    0.83
  -8  -1  -4    3.65    0.69
  -8   1  -4    3.65    0.93
   8   1   4    4.34    0.96
  -8   1  -4    2.91    1.02
  -8   1  -4    3.43    0.67
  -9  -1  -4    3.00    0.93
  -9  -1  -4    2.83    0.89
  -9  -1  -4    2.92    0.57
  -9   1  -4    4.05    0.72
  -9   1  -4    1.43    0.80
   9   1   4    1.26    0.69
  -9   1  -4    2.26    0.85
 -10  -1  -4    5.09    1.31
 -10  -1  -4    3.34    1.17
 -10   1  -4    5.07    1.18
 -10   1  -4    5.01    0.87
  13  -2  -4    0.24    0.75
 -13  -2   4    0.03    0.52
 -13  -2   4   -0.67    1.47
  13   2  -4    1.06    0.85
 -13   2   4    0.62    0.82
  13   2  -4   -0.12    0.57
 -13   2   4    0.91    0.60
 -12  -2   4    0.42    0.69
 -12  -2   4    0.05    0.39
  12  -2  -4    0.60    0.64
  12   2  -4    2.05    0.80
 -12   2   4    0.87    0.53
 -12   2   4    0.16    0.68
  12   2  -4    1.87    0.51
  12   2  -4    2.12    1.02
  11  -2  -4   -0.06    0.70
  11  -2  -4   -1.25    0.45
 -11  -2   4    0.30    0.36
  11  -2  -4   -0.20    0.44
 -11  -2   4   -0.18    0.49
  11   2  -4    0.43    0.56
  11   2  -4   -0.53    0.36
  11   2  -4    0.27    0.55
 -11   2   4   -0.22    0.39
 -11   2   4    0.23    0.63
  10  -2  -4    0.89    0.67
 -10  -2   4    0.42    0.59
 -10  -2   4    1.92    0.54
  10  -2  -4    1.73    0.66
  10   2  -4    0.67    0.38
  10   2  -4    1.71    0.69
  10   2  -4    0.52    0.50
 -10   2   4    0.89    0.45
 -10   2   4    0.51    0.58
   9  -2  -4    0.73    0.47
  -9  -2   4    1.12    0.43
  -9  -2   4    1.26    0.60
   9  -2  -4    1.74    0.74
   9  -2  -4    0.58    0.54
  -9   2   4    1.21    0.60
  -9   2   4    1.81    0.58
   9   2  -4    1.33    0.69
   9   2  -4    2.02    0.70
   9   2  -4    1.06    0.56
   9   2  -4    1.70    0.49
  -8  -2   4    4.94    0.90
  -8  -2   4    4.29    0.70
   8  -2  -4    4.21    0.90
   8  -2  -4    3.87    0.76
   8  -2  -4    5.16    0.95
   8  -2  -4    6.30    1.26
  -8   2   4    3.90    0.94
   8   2  -4    4.10    0.81
  -8   2   4    4.19    0.80
   8   2  -4    4.41    0.65
   8   2  -4    4.24    0.87
   8   2  -4    5.06    0.92
  -7  -2   4   11.51    0.91
   7  -2  -4   11.54    1.13
   7  -2  -4   10.63    1.12
   7  -2  -4   10.06    1.06
  -7   2   4   11.99    1.05
   7   2  -4    9.75    1.00
   7   2  -4    9.34    0.98
  -7   2   4   12.76    1.18
   7   2  -4   10.84    1.09
   7   2  -4   11.63    1.06
   6  -2  -4   37.67    1.93
  -6  -2   4   38.89    1.62
   6  -2  -4   39.58    1.89
   6  -2  -4   35.14    1.86
   6  -2  -4   39.23    1.74
   6   2  -4   37.57    1.57
  -6   2   4   37.96    2.31
   6   2  -4   41.23    1.83
   6   2  -4   37.01    1.81
   6   2  -4   36.67    1.73
   5  -2  -4   29.40    1.58
   5  -2  -4   28.67    1.41
   5  -2  -4   26.18    1.43
  -5  -2   4   25.12    1.25
   5  -2  -4   26.77    1.44
   5   2  -4   26.94    1.35
  -5   2   4   24.77    1.34
   5   2  -4   24.99    1.24
   5   2  -4   26.23    1.40
   5   2  -4   25.29    1.32
   4  -2  -4   23.10    1.21
   4  -2  -4   25.00    1.30
  -4  -2   4   22.84    1.16
  -4  -2   4   24.29    1.19
   4  -2  -4   25.08    1.31
   4  -2  -4   24.58    1.35
   4   2  -4   24.14    1.25
  -4   2   4   21.47    1.20
   4   2  -4   22.67    1.17
  -3  -2   4   10.86    0.76
   3  -2  -4    9.52    0.83
   3  -2  -4   11.45    0.83
  -3   2   4   10.18    0.82
  -3   2   4   10.43    0.80
   3   2  -4    9.64    0.76
   3   2  -4   11.24    0.77
   2  -2  -4   41.10    1.61
   2  -2  -4   43.14    1.56
  -2  -2   4   39.99    1.45
   2  -2  -4   42.30    1.59
  -2   2   4   43.14    1.62
   2   2  -4   43.97    1.55
   2   2  -4   41.42    1.53
  -2   2   4   42.15    1.54
  -1  -2   4  111.26    2.89
   1  -2  -4  113.64    2.88
   1  -2  -4  108.94    3.00
   1  -2  -4  113.56    2.85
   1   2  -4  104.92    2.88
  -1   2   4  109.46    2.87
  -1   2   4  111.97    3.03
  -1   2   4  118.94    2.90
   0  -2  -4    3.83    0.49
   0  -2   4    2.65    0.46
   0  -2  -4    2.50    0.47
   0  -2  -4    3.83    0.52
   0   2   4    4.24    0.61
   0   2   4    4.26    0.55
   0   2  -4    2.82    0.49
   0   2   4    3.93    0.48
  -1  -2  -4   15.98    0.94
  -1  -2  -4   15.61    1.02
   1  -2   4   14.13    0.96
  -1  -2  -4   14.16    0.77
  -1   2  -4   14.44    0.98
   1   2   4   13.54    0.85
   1   2   4   14.51    1.00
  -2  -2  -4   15.35    1.03
   2  -2   4   13.51    1.04
  -2  -2  -4   13.90    0.77
   2  -2   4   14.32    0.73
  -2  -2  -4   14.69    1.07
  -2   2  -4   14.72    1.07
   2   2   4   14.56    1.07
   2   2   4   14.70    0.96
   3  -2   4    0.58    0.34
  -3  -2  -4   -0.04    0.31
   3   2   4   -0.09    0.28
   3   2   4   -0.21    0.22
  -3   2  -4    0.00    0.30
   4  -2   4    0.58    0.39
  -4  -2  -4    0.37    0.43
   4   2   4    1.07    0.49
  -4   2  -4    1.10    0.43
  -5  -2  -4    3.70    0.50
  -5  -2  -4    3.73    0.82
   5  -2   4    3.47    0.76
  -5   2  -4    4.26    0.78
  -5   2  -4    3.77    0.84
   6  -2   4    6.56    1.15
  -6  -2  -4    4.95    0.60
  -6   2  -4    5.10    0.80
  -6   2  -4    5.40    1.05
   6   2   4    4.50    0.93
  -7  -2  -4    3.18    0.90
  -7  -2  -4    4.19    0.55
   7  -2   4    4.09    0.92
  -7   2  -4    3.93    0.97
  -7   2  -4    3.10    0.69
  -7   2  -4    2.89    0.91
   7   2   4    2.52    0.75
  -8  -2  -4    6.22    0.63
   8  -2   4    7.44    1.33
  -8  -2  -4    8.84    2.15
  -8  -2  -4    6.27    1.18
  -8   2  -4    4.92    1.07
  -8   2  -4    5.71    0.90
  -8   2  -4    3.30    0.94
  -9  -2  -4    7.44    1.43
  -9  -2  -4    3.84    0.96
  -9   2  -4    6.31    0.99
  -9   2  -4    3.33    1.00
  -9   2  -4    4.68    1.09
   9   2   4    4.61    1.08
 -10  -2  -4   -1.37    0.70
 -10  -2  -4    0.42    0.76
 -10   2  -4    0.23    0.72
 -10   2  -4    0.10    0.43
 -10   2  -4   -0.18    0.69
  12  -3  -4    4.21    1.16
 -12  -3   4    5.65    0.86
 -12  -3   4    5.20    1.17
  12   3  -4    4.44    0.67
 -12   3   4    4.68    0.97
  12   3  -4    5.21    1.09
 -12   3   4    2.54    1.04
  12   3  -4    3.84    1.10
  11  -3  -4   -0.76    0.60
 -11  -3   4   -0.25    0.35
  11  -3  -4    0.71    0.68
 -11  -3   4   -0.07    0.52
  11  -3  -4    1.14    0.56
  11   3  -4    1.76    0.65
 -11   3   4   -0.14    0.51
  11   3  -4   -0.12    0.36
  11   3  -4    0.53    0.56
 -11   3   4    0.85    0.47
  10  -3  -4    2.24    0.61
 -10  -3   4    2.78    0.63
  10  -3  -4    1.93    0.81
  10  -3  -4    1.73    0.75
 -10  -3   4    1.35    0.60
  10   3  -4    3.02    0.85
  10   3  -4    2.21    0.51
 -10   3   4    2.69    0.86
  10   3  -4    2.61    0.74
 -10   3   4    1.60    0.66
  -9  -3   4    0.49    0.45
   9  -3  -4    0.05    0.38
   9  -3  -4    0.63    0.44
   9  -3  -4    0.36    0.56
   9  -3  -4   -0.84    0.35
   9   3  -4   -0.01    0.36
   9   3  -4    0.08    0.40
   9   3  -4    0.00    0.27
  -9   3   4   -0.26    0.31
   9   3  -4    0.26    0.41
  -9   3   4   -0.02    0.46
   8  -3  -4    5.82    0.94
   8  -3  -4    5.82    1.11
   8  -3  -4    6.06    0.97
   8  -3  -4    7.38    1.15
   8   3  -4    7.20    1.15
   8   3  -4    6.31    0.95
  -8   3   4    6.51    1.15
   8   3  -4    8.45    0.76
   8   3  -4    5.25    0.92
  -8   3   4    7.31    1.08
   7  -3  -4    4.46    0.77
   7  -3  -4    4.46    0.83
  -7  -3   4    4.86    0.73
   7  -3  -4    4.16    0.88
   7  -3  -4    4.62    0.89
   7   3  -4    3.88    0.70
   7   3  -4    4.15    0.73
   7   3  -4    2.99    0.57
  -7   3   4    2.90    0.65
  -7   3   4    4.15    0.84
   7   3  -4    4.17    0.84
   6  -3  -4   12.93    1.02
  -6  -3   4   13.09    0.92
   6  -3  -4   15.94    1.20
   6  -3  -4   15.75    1.19
   6   3  -4   13.14    1.07
  -6   3   4   14.33    1.10
   6   3  -4   11.88    0.98
   6   3  -4   13.86    0.90
   6   3  -4   13.41    1.02
   5  -3  -4    0.80    0.40
   5  -3  -4    1.29    0.43
   5  -3  -4    0.80    0.36
   5  -3  -4    0.55    0.40
   5   3  -4    0.11    0.43
  -5   3   4    0.44    0.31
   5   3  -4    0.10    0.25
   5   3  -4    0.63    0.32
   5   3  -4    0.73    0.32
   4  -3  -4   21.04    1.28
   4  -3  -4   21.22    1.19
   4  -3  -4   21.63    1.23
   4  -3  -4   19.81    1.64
   4   3  -4   20.17    1.12
   4   3  -4   20.39    1.07
  -4   3   4   19.36    1.20
  -4   3   4   20.54    1.21
   3  -3  -4    0.97    0.36
   3  -3  -4    0.42    0.34
  -3  -3   4    0.88    0.31
  -3   3   4    0.60    0.32
   3   3  -4    0.90    0.34
  -3   3   4    1.01    0.42
   3   3  -4    0.83    0.33
   2  -3  -4   12.81    0.90
   2  -3  -4   12.43    0.88
   2  -3  -4   12.00    0.89
  -2   3   4   12.23    0.87
  -2   3   4   12.48    0.83
   2   3  -4   13.16    0.81
   1  -3  -4    4.28    0.60
  -1  -3   4    6.03    0.79
   1  -3  -4    5.26    0.60
   1  -3  -4    5.58    0.63
  -1   3   4    5.46    0.58
   1   3  -4    4.49    0.32
   1   3  -4    5.19    0.63
  -1   3   4    5.27    0.57
  -1   3   4    4.32    0.59
   0  -3  -4   25.31    1.23
   0  -3  -4   25.28    1.25
   0  -3  -4   26.87    1.10
   0  -3   4   27.28    1.23
   0   3  -4   24.87    1.20
   0   3   4   25.98    1.10
   0   3   4   26.23    1.28
   0   3   4   27.29    1.23
  -1  -3  -4    1.21    0.32
  -1  -3  -4    1.95    0.52
  -1  -3  -4    1.33    0.42
   1  -3   4    1.65    0.42
  -1   3  -4    2.04    0.48
   1   3   4    1.90    0.45
   1   3   4    2.09    0.50
  -2  -3  -4   18.81    1.19
  -2  -3  -4   18.72    1.20
  -2  -3  -4   19.53    0.88
   2   3   4   17.82    1.12
  -2   3  -4   18.11    1.20
   2   3   4   21.81    1.28
   3  -3   4   32.38    1.69
  -3  -3  -4   34.32    1.20
  -3  -3  -4   38.27    1.79
  -3   3  -4   36.82    1.79
   3   3   4   35.46    1.75
  -4  -3  -4    6.08    0.88
   4  -3   4    6.05    0.90
  -4  -3  -4    6.35    0.51
  -4   3  -4    7.65    0.98
  -4   3  -4    5.50    0.90
   5  -3   4    2.35    0.59
  -5  -3  -4    1.71    0.60
   5   3   4    2.48    0.72
  -5   3  -4    1.44    0.50
  -5   3  -4    1.36    0.58
  -6  -3  -4   -0.58    0.34
   6  -3   4    0.04    0.43
  -6   3  -4   -0.01    0.37
   6   3   4   -0.13    0.43
  -6   3  -4    0.63    0.52
   7  -3   4    0.55    0.61
  -7  -3  -4    1.20    0.68
   7   3   4    1.73    0.72
  -7   3  -4    1.34    0.51
  -7   3  -4    1.14    0.66
  -7   3  -4    1.32    0.73
   8  -3   4    0.06    0.61
  -8  -3  -4   -0.34    0.57
  -8  -3  -4    0.48    0.59
  -8   3  -4   -0.32    0.37
  -8   3  -4    0.81    0.62
   8   3   4    0.83    0.60
  -9  -3  -4    1.36    0.80
  -9  -3  -4    1.49    1.22
  -9   3  -4    2.80    0.84
  -9   3  -4    2.20    0.63
   9   3   4    1.41    0.80
 -10  -3  -4    0.14    0.72
 -10  -3  -4    0.14    0.77
 -10   3  -4   -0.44    0.67
 -10   3  -4    0.81    0.70
 -10   3  -4    0.41    0.53
  10   3   4    0.92    0.73
  12  -4  -4    2.01    0.91
 -12   4   4    0.01    0.59
  12   4  -4    1.89    0.49
 -12   4   4    0.99    0.82
  12   4  -4    1.72    0.74
  12   4  -4    1.29    0.74
  11  -4  -4    0.90    0.84
  11   4  -4    0.13    0.52
  11   4  -4    0.26    0.33
 -11   4   4    0.25    0.56
 -11   4   4    0.38    0.53
  11   4  -4   -0.30    0.48
  10  -4  -4    2.32    0.79
  10  -4  -4    4.33    1.09
  10  -4  -4    3.26    0.72
  10   4  -4    4.25    0.95
  10   4  -4    3.06    0.56
 -10   4   4    4.17    0.87
  10   4  -4    3.28    0.90
 -10   4   4    4.18    1.10
   9  -4  -4   30.87    2.19
   9  -4  -4   31.82    2.15
   9  -4  -4   35.34    2.33
   9  -4  -4   37.07    2.25
   9   4  -4   36.67    1.61
  -9   4   4   35.59    2.29
   9   4  -4   37.24    2.19
  -9   4   4   37.11    2.09
   9   4  -4   35.22    2.08
   9   4  -4   34.61    3.21
   8  -4  -4    6.22    1.17
   8  -4  -4    7.10    1.08
   8  -4  -4    7.62    1.16
   8  -4  -4    7.67    1.15
   8   4  -4    5.01    0.93
   8   4  -4    5.75    1.19
   8   4  -4    7.52    1.06
   8   4  -4    7.22    1.05
  -8   4   4    6.54    1.11
   7  -4  -4   35.39    1.97
   7  -4  -4   35.26    1.97
   7  -4  -4   32.74    1.76
   7  -4  -4   37.75    2.11
  -7   4   4   38.60    2.51
   7   4  -4   34.75    1.78
  -7   4   4   37.09    1.91
   7   4  -4   35.05    1.51
   7   4  -4   35.77    1.88
   7   4  -4   36.21    1.79
   6  -4  -4    6.62    1.06
   6  -4  -4    4.62    0.80
   6  -4  -4    5.58    0.87
   6  -4  -4    4.76    0.78
  -6   4   4    5.00    0.85
   6   4  -4    6.12    0.64
   6   4  -4    3.95    0.64
   6   4  -4    4.90    0.71
   5  -4  -4    8.62    0.84
   5  -4  -4    8.58    1.05
   5  -4  -4    5.80    0.81
   5  -4  -4    8.32    1.14
  -5   4   4    8.22    0.89
   5   4  -4    7.68    0.72
   5   4  -4    8.24    0.75
   5   4  -4    6.89    0.66
   5   4  -4    8.19    0.78
   4  -4  -4    6.73    0.88
   4  -4  -4    5.76    0.76
   4  -4  -4    6.05    0.85
   4  -4  -4    6.52    0.72
  -4   4   4    4.61    0.83
  -4   4   4    6.19    0.85
   4   4  -4    6.34    0.67
   4   4  -4    5.85    0.59
   4   4  -4    6.05    0.65
   3  -4  -4    8.35    0.77
   3  -4  -4    9.50    0.80
   3  -4  -4    9.19    0.91
  -3  -4   4    9.53    0.65
   3  -4  -4    9.34    0.87
   3   4  -4    8.63    0.90
  -3   4   4    9.20    0.82
   3   4  -4    9.29    0.72
  -3   4   4    9.10    0.83
   2  -4  -4    4.22    0.70
   2  -4  -4    3.45    0.53
   2  -4  -4    4.54    0.74
  -2  -4   4    4.02    0.50
   2   4  -4    4.72    0.50
   2   4  -4    4.01    0.53
  -2   4   4    4.09    0.61
  -2   4   4    3.44    0.57
   1  -4  -4    4.88    0.68
   1  -4  -4    4.08    0.60
   1  -4  -4    4.83    0.62
  -1  -4   4    4.88    0.58
  -1   4   4    3.89    0.51
   1   4  -4    4.84    0.61
  -1   4   4    6.21    0.75
  -1   4   4    5.72    0.78
   1   4  -4    3.90    0.35
   0  -4  -4   10.11    0.69
   0  -4  -4   10.51    0.84
   0  -4  -4    9.62    0.85
   0  -4   4    8.76    0.72
   0   4   4   10.47    0.84
   0   4   4    8.59    0.67
   0   4  -4    9.64    0.77
   0   4   4   10.15    0.83
  -1  -4  -4    1.68    0.50
  -1  -4  -4    2.14    0.49
  -1  -4  -4    2.00    0.52
   1  -4   4    2.17    0.51
   1   4   4    2.39    0.55
   1   4   4    2.19    0.40
  -1   4  -4    2.10    0.46
   1   4   4    2.19    0.56
  -2  -4  -4    2.27    0.37
  -2  -4  -4    2.33    0.56
  -2  -4  -4    1.86    0.55
   2  -4   4    2.11    0.50
   2   4   4    2.27    0.58
  -2   4  -4    1.53    0.48
   3  -4   4   18.75    1.27
  -3  -4  -4   17.11    1.29
  -3  -4  -4   18.41    1.25
  -3  -4  -4   18.35    0.79
  -3   4  -4   18.33    1.28
   3   4   4   17.84    1.24
   4  -4   4    2.57    0.59
  -4  -4  -4    2.74    0.64
  -4   4  -4    3.12    0.66
  -4   4  -4    3.34    0.69
   4   4   4    3.40    0.70
  -5  -4  -4    3.93    0.76
   5  -4   4    2.94    0.69
  -5   4  -4    3.17    0.69
  -5   4  -4    2.81    0.79
   5   4   4    4.38    0.83
  -6  -4  -4    1.92    0.68
   6  -4   4    1.91    0.65
  -6   4  -4    2.90    0.78
  -6   4  -4    1.46    0.59
  -7  -4  -4    2.27    0.84
   7  -4   4    2.77    0.84
  -7   4  -4    3.58    0.94
   7   4   4    3.35    0.88
  -7   4  -4    1.36    0.57
  -7   4  -4    3.92    1.01
  -8  -4  -4   19.64    2.19
  -8  -4  -4   23.73    1.91
  -8   4  -4   25.81    2.06
   8   4   4   23.31    1.96
  -8   4  -4   25.76    1.70
  -8   4  -4   21.33    1.92
  -9  -4  -4   -0.44    0.52
  -9  -4  -4    0.11    0.59
  -9   4  -4    0.60    0.63
   9   4   4    0.62    0.71
  -9   4  -4   -0.71    0.67
  -9   4  -4    0.05    0.48
 -10  -4  -4    0.66    0.81
 -10  -4  -4    1.64    1.41
  10   4   4    0.71    1.15
 -10   4  -4   -0.74    0.62
 -10   4  -4    0.22    0.63
  12  -5  -4    0.15    0.56
  12   5  -4   -1.47    0.61
 -12   5   4    0.83    0.59
  12   5  -4    0.04    0.50
 -12   5   4   -0.27    0.61
  11  -5  -4    5.28    1.32
  11   5  -4    6.66    1.25
  11   5  -4    5.39    1.19
  11   5  -4    3.87    0.60
 -11   5   4    5.06    1.01
 -11   5   4    5.95    1.25
  10  -5  -4    0.99    0.56
  10  -5  -4    1.32    0.64
  10  -5  -4    1.45    0.68
 -10   5   4    0.62    0.57
  10   5  -4    1.13    0.35
  10   5  -4    0.71    0.50
  10   5  -4    0.85    0.59
 -10   5   4    1.22    0.58
   9  -5  -4    0.60    0.36
   9  -5  -4    0.22    0.50
   9  -5  -4    0.19    0.42
   9  -5  -4    0.13    0.53
   9   5  -4    0.16    0.43
  -9   5   4   -0.24    0.45
   9   5  -4    0.54    0.34
   9   5  -4   -0.18    0.35
  -9   5   4    0.24    0.42
   8  -5  -4   -0.53    0.23
   8  -5  -4   -0.34    0.35
   8  -5  -4   -0.23    0.43
   8  -5  -4    0.27    0.39
   8   5  -4    0.10    0.33
   8   5  -4    0.03    0.36
   8   5  -4   -0.48    0.22
  -8   5   4   -0.64    0.36
  -8   5   4    0.13    0.37
   8   5  -4   -0.20    0.27
   7  -5  -4    8.93    0.94
   7  -5  -4    6.71    1.05
   7  -5  -4    8.93    1.24
   7   5  -4    6.66    0.99
  -7   5   4    7.63    1.02
   7   5  -4    8.14    0.88
   7   5  -4    8.43    0.89
   7   5  -4    7.79    0.73
  -7   5   4    8.40    1.23
   6  -5  -4    0.68    0.34
   6  -5  -4    0.81    0.42
   6  -5  -4    0.21    0.33
   6  -5  -4    0.67    0.48
   6   5  -4    0.33    0.32
  -6   5   4    0.45    0.34
   6   5  -4    0.38    0.27
   6   5  -4    0.34    0.27
   6   5  -4    0.30    0.34
   5  -5  -4    0.28    0.33
   5  -5  -4    0.25    0.30
   5  -5  -4    0.05    0.30
   5  -5  -4    0.04    0.31
   5   5  -4   -0.07    0.26
  -5   5   4    0.36    0.32
   5   5  -4   -0.20    0.20
   5   5  -4    0.50    0.30
   5   5  -4    0.34    0.25
   4  -5  -4   21.57    1.41
   4  -5  -4   18.35    1.25
   4  -5  -4   20.08    1.39
   4  -5  -4   19.75    1.21
   4  -5  -4   20.18    1.22
  -4   5   4   19.09    1.24
   4   5  -4   20.89    1.10
  -4   5   4   17.88    1.20
   4   5  -4   17.76    1.01
   3  -5  -4   61.62    2.12
  -3  -5   4   58.08    1.68
   3  -5  -4   57.50    2.84
   3  -5  -4   58.65    2.15
  -3   5   4   55.98    2.11
  -3   5   4   56.48    2.11
   3   5  -4   55.77    2.02
   3   5  -4   56.00    1.79
   2  -5  -4   12.17    0.87
  -2  -5   4   10.87    0.65
   2  -5  -4   13.26    0.98
   2  -5  -4   12.12    1.02
  -2   5   4   12.15    0.92
   2   5  -4   10.72    0.71
  -2   5   4   12.57    0.92
   2   5  -4   11.69    0.76
   1  -5  -4    0.88    0.36
  -1  -5   4    1.24    0.32
   1  -5  -4    0.79    0.41
   1   5  -4    1.59    0.32
  -1   5   4    1.22    0.42
   1   5  -4    1.16    0.34
  -1   5   4    1.68    0.45
  -1   5   4    1.41    0.38
   0  -5  -4   44.84    1.92
   0  -5  -4   43.26    1.53
   0  -5  -4   44.78    1.74
   0  -5   4   45.18    1.25
   0  -5   4   43.38    1.59
   0   5  -4   43.27    1.19
   0   5   4   43.87    1.86
   0   5   4   46.35    1.59
   0   5  -4   44.16    1.63
   0   5   4   48.59    1.83
   1  -5   4    8.15    0.75
  -1  -5  -4    8.71    0.90
  -1  -5  -4    7.96    0.60
  -1  -5  -4    7.61    0.76
   1  -5   4    7.98    0.47
   1   5   4    8.07    0.61
  -1   5  -4    6.47    0.92
   1   5   4    7.61    0.80
   2  -5   4    6.97    0.75
  -2  -5  -4    5.36    0.48
  -2  -5  -4    7.61    0.78
   2  -5   4    6.06    0.49
  -2  -5  -4    5.15    0.81
   2   5   4    7.67    0.97
  -2   5  -4    7.76    1.15
  -3  -5  -4    4.46    0.86
   3  -5   4    3.74    0.69
  -3  -5  -4    4.05    0.70
   3   5   4    3.55    0.66
  -3   5  -4    3.11    0.63
   4  -5   4   10.21    1.02
  -4  -5  -4    9.91    1.00
   4   5   4    8.44    0.95
  -4   5  -4    8.45    0.94
  -4   5  -4    7.31    1.04
  -5  -5  -4    0.65    0.46
   5  -5   4   -0.61    0.25
  -5   5  -4    0.27    0.40
   5   5   4    0.03    0.36
  -5   5  -4    0.22    0.35
  -6  -5  -4    1.68    0.61
   6  -5   4    1.84    0.65
  -6   5  -4    1.99    0.71
  -6   5  -4    1.27    0.56
   6   5   4    0.74    0.49
  -7  -5  -4    5.87    1.10
   7  -5   4    6.56    1.20
  -7   5  -4    6.15    1.04
   7   5   4    4.43    1.02
  -7   5  -4    5.43    1.10
  -7   5  -4    7.59    1.36
  -8  -5  -4    1.15    0.70
  -8  -5  -4    0.84    0.53
  -8   5  -4    0.38    0.64
  -8   5  -4    1.27    0.64
   8   5   4    0.76    0.68
  -9  -5  -4   -0.01    0.67
  -9  -5  -4    1.25    0.78
  -9   5  -4    0.41    0.83
  -9   5  -4   -0.46    0.52
   9   5   4    0.77    0.66
 -10  -5  -4    0.67    0.88
 -10  -5  -4    0.63    0.85
  10   5   4    2.99    1.96
 -10   5  -4    0.57    0.75
 -10   5  -4   -0.03    0.49
 -10   5  -4    0.32    0.70
  12  -6  -4   -0.07    0.74
  12   6  -4    1.12    0.63
 -12   6   4    0.39    0.58
  12   6  -4   -0.21    0.46
 -12   6   4    1.22    0.83
  11  -6  -4    0.04    0.58
 -11   6   4    0.51    0.50
 -11   6   4   -1.11    0.50
  11   6  -4    0.85    0.56
  11   6  -4   -0.66    0.44
  10  -6  -4    4.16    1.06
  10   6  -4    3.46    0.86
 -10   6   4    4.89    1.42
 -10   6   4    2.28    0.81
  10   6  -4    2.84    0.79
  10   6  -4    2.99    0.58
   9  -6  -4   -0.28    0.43
   9  -6  -4    0.58    0.45
   9  -6  -4    0.36    0.41
   9  -6  -4    0.29    0.71
   9   6  -4    0.75    0.46
   9   6  -4   -0.41    0.27
  -9   6   4   -0.22    0.40
  -9   6   4   -0.14    0.40
   8  -6  -4    0.39    0.48
   8  -6  -4    0.06    0.39
   8  -6  -4   -0.04    0.29
   8  -6  -4    0.01    0.39
   8   6  -4   -0.43    0.33
   8   6  -4    0.29    0.30
   8   6  -4   -0.51    0.30
   8   6  -4    0.57    0.41
  -8   6   4    0.77    0.53
   7  -6  -4    0.03    0.36
   7  -6  -4   -0.13    0.37
   7  -6  -4    0.98    0.52
   7  -6  -4    0.90    0.52
   7   6  -4    0.27    0.32
   7   6  -4   -0.01    0.24
  -7   6   4    0.17    0.35
  -7   6   4    0.64    0.49
   7   6  -4   -0.18    0.30
   7   6  -4    0.56    0.38
   6  -6  -4    7.30    1.12
   6  -6  -4    4.25    0.75
   6  -6  -4    6.24    0.97
   6  -6  -4    5.58    0.89
   6   6  -4    5.23    0.66
   6   6  -4    4.79    0.72
   6   6  -4    4.58    0.71
   6   6  -4    4.31    0.67
  -6   6   4    6.43    1.00
   5  -6  -4   19.05    1.30
   5  -6  -4   19.59    1.36
   5  -6  -4   17.50    1.24
   5  -6  -4   18.51    1.26
   5   6  -4   17.50    1.00
   5   6  -4   18.53    1.05
   5   6  -4   19.10    1.04
   5   6  -4   18.90    1.10
  -5   6   4   19.05    1.30
   4  -6  -4   89.38    2.84
   4  -6  -4   85.22    3.37
   4  -6  -4   88.88    2.85
   4  -6  -4   84.46    2.88
   4  -6  -4   88.86    2.89
   4   6  -4   78.86    2.52
  -4   6   4   85.86    2.87
   4   6  -4   82.04    2.29
   4   6  -4   87.72    2.38
  -4   6   4   83.85    2.86
   4   6  -4   83.07    2.55
   3  -6  -4   -0.18    0.25
   3  -6  -4    0.09    0.25
   3  -6  -4    0.18    0.29
   3  -6  -4    0.21    0.27
   3  -6  -4    0.05    0.27
  -3   6   4    0.65    0.37
  -3   6   4    0.28    0.30
   3   6  -4   -0.05    0.22
   3   6  -4    0.18    0.24
   2  -6  -4    4.75    0.82
  -2  -6   4    4.15    0.41
   2  -6  -4    3.98    0.61
   2  -6  -4    3.91    0.63
  -2   6   4    4.83    0.70
  -2   6   4    4.10    0.64
   2   6  -4    4.35    0.62
   2   6  -4    4.54    0.54
  -1  -6   4    0.05    0.22
   1  -6  -4    0.36    0.26
   1  -6  -4   -0.03    0.26
  -1  -6   4    0.27    0.22
  -1   6   4    0.13    0.29
  -1   6   4    0.15    0.30
   1   6  -4   -0.07    0.20
   1   6  -4    0.11    0.24
   0  -6  -4    9.10    0.79
   0  -6  -4    9.20    1.00
   0  -6  -4    7.87    0.69
   0  -6   4    8.71    0.81
   0  -6   4    8.62    0.57
   0   6   4    8.97    0.82
   0   6   4    8.77    0.71
   0   6  -4    7.95    0.73
   0   6  -4    8.17    0.53
  -1  -6  -4    5.85    0.54
  -1  -6  -4    5.33    0.72
   1  -6   4    5.72    0.47
  -1  -6  -4    6.59    0.96
   1  -6   4    5.16    0.71
   1   6   4    5.42    0.59
   1   6   4    6.26    0.83
  -1   6  -4    5.56    0.75
  -2  -6  -4    6.29    0.50
   2  -6   4    6.35    0.73
   2  -6   4    7.07    0.57
  -2  -6  -4    8.30    0.80
  -2  -6  -4    5.65    0.97
  -2   6  -4    7.92    0.83
   2   6   4    7.85    0.56
   2   6   4    7.06    0.78
   3  -6   4   27.09    1.22
   3  -6   4   24.31    1.46
  -3  -6  -4   25.39    1.72
  -3  -6  -4   25.32    1.43
  -3   6  -4   25.51    1.51
   3   6   4   24.79    1.47
  -3   6  -4   25.17    1.52
  -4  -6  -4    9.56    0.97
   4  -6   4    8.58    0.95
  -4   6  -4    8.87    1.00
   4   6   4    7.17    1.01
  -4   6  -4    9.61    1.08
  -5  -6  -4    0.38    0.42
   5  -6   4    0.87    0.53
  -5   6  -4    1.02    0.55
   5   6   4    0.96    0.53
  -5   6  -4    0.79    0.51
  -6  -6  -4    6.18    1.05
   6  -6   4    5.71    1.08
  -6   6  -4    6.97    1.18
  -6   6  -4    7.46    1.29
  -6   6  -4    4.75    0.95
   6   6   4    7.62    1.25
  -7  -6  -4    1.57    0.70
  -7  -6  -4    1.81    0.78
  -7   6  -4    2.47    0.76
   7   6   4    2.34    1.17
  -7   6  -4    1.45    0.72
  -7   6  -4    1.39    0.64
  -8  -6  -4    2.01    0.79
  -8  -6  -4    2.39    0.79
  -8   6  -4    3.47    0.89
  -8   6  -4    2.93    0.81
  -8   6  -4    1.95    0.77
   8   6   4    2.85    0.87
  -9  -6  -4    2.19    0.95
  -9  -6  -4    1.03    0.80
  -9   6  -4    2.23    0.71
  -9   6  -4    0.60    0.77
   9   6   4    3.03    0.99
  -9   6  -4    2.64    0.99
 -10  -6  -4   -0.55    0.78
 -10  -6  -4    0.21    0.79
 -10   6  -4    0.69    0.77
 -10   6  -4    0.81    0.86
  10   6   4    0.12    0.82
 -10   6  -4    0.47    0.58
  12  -7  -4    0.73    0.63
  12   7  -4    0.83    0.86
  12   7  -4    1.16    0.66
 -12   7   4   -0.21    0.50
 -12   7   4    0.83    0.94
  11  -7  -4    4.93    1.16
 -11   7   4    5.59    1.27
  11   7  -4    6.03    1.59
 -11   7   4    5.38    1.25
  11   7  -4    5.02    1.13
  10  -7  -4   -0.10    0.53
 -10   7   4    0.03    0.58
 -10   7   4   -0.18    0.38
  10   7  -4    0.76    0.52
  10   7  -4   -0.12    0.35
   9  -7  -4   15.59    1.67
   9  -7  -4   13.48    1.47
   9   7  -4   16.30    1.39
   9   7  -4   12.35    0.87
   9   7  -4   14.46    1.39
  -9   7   4   13.95    1.53
   8  -7  -4    2.74    0.81
   8  -7  -4    3.77    0.91
   8  -7  -4    3.57    0.87
   8  -7  -4    3.60    0.73
  -8   7   4    4.34    0.86
   8   7  -4    4.59    0.82
   8   7  -4    4.05    0.61
  -8   7   4    3.61    0.95
   8   7  -4    3.85    0.80
   7  -7  -4  103.56    3.72
   7  -7  -4  104.38    3.79
   7  -7  -4  107.46    3.78
   7   7  -4  109.77    4.13
   7   7  -4  105.61    2.97
  -7   7   4  105.96    3.74
   7   7  -4  107.26    3.42
  -7   7   4  111.89    3.92
   7   7  -4  105.28    3.32
   6  -7  -4    4.08    0.85
   6  -7  -4    4.56    0.87
   6  -7  -4    4.17    0.76
   6  -7  -4    3.51    0.78
   6   7  -4    4.52    0.67
   6   7  -4    4.42    0.65
  -6   7   4    3.90    0.76
   6   7  -4    4.54    0.63
   6   7  -4    4.38    0.69
   5  -7  -4    8.87    0.90
   5  -7  -4    6.74    1.14
   5  -7  -4    7.39    1.05
   5  -7  -4    7.71    1.01
   5  -7  -4    8.45    0.89
   5   7  -4    6.92    0.64
   5   7  -4    7.77    0.72
   5   7  -4    7.32    0.70
   5   7  -4    7.57    0.66
  -5   7   4    8.74    1.12
   4  -7  -4    1.61    0.50
   4  -7  -4    2.87    0.60
   4  -7  -4    2.08    0.53
   4  -7  -4    3.56    0.66
   4  -7  -4    2.50    0.68
   4   7  -4    2.64    0.42
   4   7  -4    3.42    0.48
   4   7  -4    2.48    0.44
  -4   7   4    3.10    0.65
  -4   7   4    2.77    0.61
   3  -7  -4   23.00    1.32
   3  -7  -4   23.34    1.33
   3  -7  -4   22.80    1.63
   3  -7  -4   23.20    1.26
   3  -7  -4   24.31    1.31
   3   7  -4   21.45    1.26
  -3   7   4   23.21    1.33
   3   7  -4   21.20    1.15
  -3   7   4   21.65    1.39
   2  -7  -4   13.74    1.19
   2  -7  -4   13.49    0.98
   2  -7  -4   13.73    0.98
  -2   7   4   12.92    0.97
   2   7  -4   12.61    0.73
  -2   7   4   12.29    1.19
   2   7  -4   12.37    0.86
   1  -7  -4    4.44    0.75
  -1  -7   4    4.31    0.42
  -1  -7   4    5.28    0.65
   1  -7  -4    5.34    0.71
   1   7  -4    4.13    0.64
  -1   7   4    4.36    0.64
   1   7  -4    4.77    0.59
  -1   7   4    5.23    0.74
   0  -7  -4    0.53    0.18
   0  -7   4    0.15    0.21
   0  -7  -4    0.09    0.21
   0  -7  -4   -0.21    0.27
   0  -7   4    0.25    0.25
   0   7   4    0.50    0.31
   0   7   4   -0.12    0.19
   0   7  -4    0.18    0.25
   0   7  -4    0.17    0.21
  -1  -7  -4   87.94    3.16
  -1  -7  -4   85.54    2.34
   1  -7   4   84.06    2.31
   1  -7   4   83.89    2.55
   1   7   4   85.56    2.74
  -1   7  -4   79.97    2.57
   1   7   4   86.11    2.38
  -2  -7  -4   80.69    2.67
  -2  -7  -4   72.96    3.04
   2  -7   4   78.42    2.28
   2  -7   4   80.05    2.63
  -2  -7  -4   80.26    2.10
   2   7   4   75.52    2.10
   2   7   4   82.19    2.75
  -2   7  -4   78.07    2.67
   3  -7   4   27.35    1.56
  -3  -7  -4   28.73    1.90
  -3  -7  -4   29.33    1.53
   3  -7   4   28.44    1.32
   3   7   4   29.39    1.61
  -3   7  -4   27.91    1.67
  -3   7  -4   28.15    1.61
  -4  -7  -4   23.36    1.81
   4  -7   4   21.00    1.47
   4  -7   4   22.32    1.29
  -4  -7  -4   25.11    1.49
  -4   7  -4   24.95    1.63
   4   7   4   23.89    1.54
  -4   7  -4   25.64    1.65
   5  -7   4   25.67    1.74
  -5  -7  -4   25.19    1.59
  -5   7  -4   26.72    1.82
   5   7   4   22.86    1.63
  -5   7  -4   26.42    1.76
  -6  -7  -4   20.18    1.56
   6  -7   4   21.84    1.72
  -6   7  -4   20.69    1.74
   6   7   4   21.71    1.70
  -6   7  -4   21.05    1.67
  -6   7  -4   22.69    1.80
  -7  -7  -4   23.13    1.71
  -7  -7  -4   25.95    1.84
  -7   7  -4   21.25    1.85
   7   7   4   21.96    1.82
  -7   7  -4   23.62    1.79
  -7   7  -4   20.20    3.20
  -8  -7  -4    5.59    1.04
  -8  -7  -4    8.06    1.34
  -8   7  -4    6.08    1.23
  -8   7  -4    7.06    1.36
  -8   7  -4    6.09    1.24
   8   7   4    8.45    1.34
  -9  -7  -4    0.54    0.67
  -9  -7  -4    1.73    0.77
  -9   7  -4    2.24    0.99
   9   7   4    0.00    0.70
  -9   7  -4   -0.48    0.51
  -9   7  -4   -0.03    0.47
  12  -8  -4    0.27    0.70
  12   8  -4   -0.54    0.75
 -12   8   4    0.46    0.57
  12   8  -4   -0.04    0.57
 -12   8   4    1.74    0.85
  11  -8  -4    0.25    0.64
  11   8  -4    0.39    0.61
 -11   8   4   -0.06    0.60
  11   8  -4    0.02    0.48
 -11   8   4    0.15    0.58
  10  -8  -4    0.65    0.61
  10   8  -4    2.37    0.67
 -10   8   4    0.58    0.49
 -10   8   4    2.79    1.29
  10   8  -4    1.33    0.63
   9  -8  -4    0.85    0.65
   9   8  -4   -0.02    0.45
   9   8  -4    0.99    0.56
  -9   8   4    1.27    0.71
  -9   8   4    0.16    0.42
   8  -8  -4    3.59    0.87
   8  -8  -4    3.81    0.90
   8  -8  -4    2.44    0.72
   8  -8  -4    3.46    0.94
   8   8  -4    2.75    0.71
  -8   8   4    3.63    0.83
   8   8  -4    3.01    0.67
   8   8  -4    2.99    0.50
  -8   8   4    3.42    0.87
   7  -8  -4   -0.67    0.41
   7  -8  -4    0.18    0.40
   7  -8  -4   -0.21    0.33
   7  -8  -4   -0.51    0.26
   7   8  -4    0.08    0.32
   7   8  -4    0.11    0.35
  -7   8   4   -0.37    0.32
   7   8  -4    0.12    0.28
   7   8  -4    1.03    0.33
   6  -8  -4    7.94    1.19
   6  -8  -4    4.17    0.98
   6  -8  -4    5.74    1.02
   6  -8  -4    4.72    0.87
   6  -8  -4    3.23    0.77
   6   8  -4    4.55    0.65
  -6   8   4    3.81    0.76
   6   8  -4    4.86    0.73
   6   8  -4    5.72    0.82
   6   8  -4    5.07    0.68
   5  -8  -4    1.38    0.58
   5  -8  -4    2.30    0.63
   5  -8  -4    2.26    0.62
   5  -8  -4    2.62    0.62
   5  -8  -4    4.08    0.81
   5   8  -4    2.24    0.47
   5   8  -4    2.47    0.52
  -5   8   4    2.76    0.70
   5   8  -4    2.20    0.41
   5   8  -4    2.42    0.45
   4  -8  -4   20.98    1.38
   4  -8  -4   21.19    1.37
   4  -8  -4   21.15    1.62
   4  -8  -4   23.52    1.36
   4  -8  -4   23.43    1.36
  -4   8   4   20.77    1.36
   4   8  -4   23.02    0.98
  -4   8   4   22.59    1.45
   4   8  -4   21.52    0.96
   4   8  -4   23.44    1.05
   3  -8  -4    4.16    0.86
   3  -8  -4    2.99    0.56
   3  -8  -4    3.92    0.66
   3  -8  -4    2.27    0.50
   3  -8  -4    3.23    0.63
  -3   8   4    4.23    0.72
  -3   8   4    3.76    0.67
   3   8  -4    3.21    0.43
   2  -8  -4    2.51    0.71
   2  -8  -4    2.86    0.53
  -2  -8   4    3.15    0.64
   2  -8  -4    3.00    0.92
   2  -8  -4    2.05    0.45
   2   8  -4    2.42    0.48
  -2   8   4    2.05    0.55
   2   8  -4    2.73    0.41
  -2   8   4    4.16    0.67
  -1  -8   4   38.59    1.60
   1  -8  -4   38.56    2.51
   1   8  -4   36.25    1.50
  -1   8   4   41.64    1.73
  -1   8   4   38.00    1.67
   1   8  -4   37.99    1.36
   0  -8   4    0.14    0.18
   0  -8   4    0.03    0.25
   0  -8  -4    0.00    0.19
   0  -8  -4    0.16    0.33
   0   8   4    0.51    0.30
   0   8  -4    0.31    0.24
   0   8  -4    0.70    0.30
   0   8   4   -0.01    0.26
  -1  -8  -4   11.33    0.76
  -1  -8  -4   12.35    1.21
   1  -8   4   11.02    0.80
   1  -8   4    9.51    0.74
   1   8   4   10.51    0.89
  -1   8  -4   10.86    0.86
   1   8   4   10.70    0.75
   2  -8   4   30.78    1.35
  -2  -8  -4   30.24    1.15
   2  -8   4   29.56    1.48
  -2  -8  -4   32.37    1.99
  -2   8  -4   28.58    1.52
   2   8   4   31.42    1.60
   2   8   4   31.17    1.19
  -2   8  -4   29.48    1.73
  -3  -8  -4   35.13    2.19
   3  -8   4   33.90    1.75
   3  -8   4   35.02    1.56
   3   8   4   38.39    1.87
  -3   8  -4   36.06    1.86
  -3   8  -4   37.18    1.99
   4  -8   4    5.52    0.84
  -4  -8  -4    4.00    1.05
   4  -8   4    5.20    0.87
  -4   8  -4    4.28    0.85
  -4   8  -4    4.81    0.85
   4   8   4    3.02    0.71
  -5  -8  -4   16.44    1.26
   5  -8   4   13.90    1.18
   5  -8   4   13.43    1.27
  -5   8  -4   14.32    1.39
   5   8   4   15.46    1.36
  -5   8  -4   12.75    1.29
  -5   8  -4   14.30    1.38
  -6  -8  -4   53.05    2.47
   6   8   4   56.11    2.70
  -6   8  -4   48.66    2.69
  -6   8  -4   51.67    2.74
  -6   8  -4   51.38    3.83
  -7  -8  -4    0.22    0.48
  -7  -8  -4    1.24    0.59
  -7   8  -4    0.34    0.56
  -7   8  -4    0.58    0.55
  -7   8  -4    0.95    0.58
   7   8   4   -0.30    0.48
  -8  -8  -4    1.81    0.76
   8   8   4    1.66    0.95
  -8   8  -4    0.18    0.60
  -8   8  -4    0.88    0.63
  -8   8  -4    1.48    0.79
  -9  -8  -4    3.27    0.98
  -9   8  -4    2.01    0.90
  -9   8  -4    4.12    1.02
   9   8   4    2.31    0.96
  -9   8  -4    4.17    1.21
  11  -9  -4    2.73    1.06
  11   9  -4    2.38    0.79
 -11   9   4    2.28    0.83
 -11   9   4    2.45    0.99
  11   9  -4    1.97    0.75
  10  -9  -4    2.18    0.81
  10   9  -4    0.35    0.44
 -10   9   4    1.59    0.69
 -10   9   4    0.27    0.43
  10   9  -4   -0.13    0.45
   9  -9  -4    0.05    0.50
   9   9  -4    0.79    0.46
   9   9  -4   -0.74    0.33
  -9   9   4    0.52    0.49
   8  -9  -4    1.14    0.58
   8  -9  -4    1.38    0.81
   8  -9  -4    1.12    0.72
   8   9  -4    1.75    0.40
   8   9  -4    1.84    0.55
  -8   9   4    1.16    0.72
   8   9  -4    1.33    0.49
   7  -9  -4    0.47    0.38
   7  -9  -4   -0.62    0.43
   7  -9  -4    0.02    0.39
   7  -9  -4    0.06    0.42
   7  -9  -4   -0.09    0.39
   7   9  -4    0.35    0.29
   7   9  -4   -0.43    0.27
  -7   9   4   -0.22    0.35
   6  -9  -4   17.28    2.57
   6  -9  -4   13.64    1.29
   6  -9  -4   13.63    1.33
   6  -9  -4   13.96    1.22
   6  -9  -4   14.41    1.54
   6   9  -4   13.94    0.95
   6   9  -4   13.46    0.94
   6   9  -4   13.73    0.95
   6   9  -4   13.57    0.99
  -6   9   4   13.99    1.33
   5  -9  -4   26.02    1.95
   5  -9  -4   30.45    1.80
   5  -9  -4   29.01    1.74
   5  -9  -4   30.89    1.68
   5  -9  -4   27.73    1.62
  -5   9   4   28.84    1.79
   5   9  -4   30.76    1.31
   5   9  -4   30.16    1.52
   5   9  -4   28.09    1.22
   5   9  -4   30.25    1.25
   4  -9  -4   -0.22    0.23
   4  -9  -4    0.47    0.32
   4  -9  -4    0.44    0.32
   4  -9  -4   -0.09    0.35
   4  -9  -4    0.14    0.28
   4   9  -4    0.32    0.24
  -4   9   4    0.16    0.35
   4   9  -4    0.29    0.22
  -4   9   4    0.06    0.35
   4   9  -4    0.55    0.23
   3  -9  -4    1.48    0.45
   3  -9  -4    2.13    0.49
   3  -9  -4    1.62    0.46
   3  -9  -4    2.34    0.57
   3  -9  -4    1.55    0.58
  -3   9   4    1.30    0.51
  -3   9   4    1.59    0.49
  -2  -9   4    0.30    0.34
   2  -9  -4    0.21    0.24
   2  -9  -4   -0.17    0.19
   2  -9  -4   -0.08    0.24
   2  -9  -4    0.25    0.35
  -2   9   4    0.30    0.33
  -2   9   4    0.60    0.31
  -1  -9   4   14.97    1.04
   1  -9  -4   14.82    1.33
   1  -9  -4   12.77    0.96
   1   9  -4   14.16    0.98
   1   9  -4   14.87    0.80
  -1   9   4   14.45    1.04
  -1   9   4   13.30    0.98
   0  -9  -4    0.07    0.33
   0  -9   4    0.02    0.23
   0  -9  -4    0.51    0.27
   0   9   4   -0.12    0.21
   0   9  -4    0.03    0.21
   0   9  -4   -0.43    0.18
   0   9   4    0.03    0.26
  -1  -9  -4   27.68    1.86
  -1  -9  -4   30.66    1.31
   1  -9   4   27.89    1.35
   1  -9   4   27.45    1.28
  -1  -9  -4   28.96    1.38
   1   9   4   28.49    1.29
  -1   9  -4   27.25    1.36
   1   9   4   29.32    1.51
   2  -9   4    0.44    0.33
   2  -9   4    0.56    0.35
  -2  -9  -4    0.53    0.39
  -2  -9  -4    0.48    0.45
  -2  -9  -4   -0.06    0.18
  -2   9  -4    0.20    0.35
   2   9   4   -0.01    0.19
  -2   9  -4    0.26    0.34
   2   9   4    0.07    0.30
  -3  -9  -4    7.63    1.17
   3  -9   4    7.69    0.86
   3  -9   4    8.40    0.81
  -3   9  -4    7.35    1.02
   3   9   4    8.32    0.94
  -3   9  -4    9.09    0.97
   4  -9   4   15.46    1.17
  -4  -9  -4   15.37    1.61
   4  -9   4   15.54    1.26
  -4   9  -4   13.54    1.34
   4   9   4   17.42    1.34
  -4   9  -4   16.01    1.36
   5  -9   4   13.28    1.24
   5   9   4   14.11    1.30
  -5   9  -4   14.33    1.43
  -5   9  -4   11.68    1.32
  -5   9  -4   13.96    1.38
   6  -9   4    0.65    0.52
  -6   9  -4    0.17    0.58
   6   9   4   -0.71    0.38
  -6   9  -4   -0.40    0.30
  -7  -9  -4    1.55    0.69
   7  -9   4    4.42    0.97
  -7  -9  -4    1.82    0.70
  -7   9  -4    2.35    0.85
  -7   9  -4    2.93    0.87
  -7   9  -4    2.19    0.75
  -8  -9  -4    1.53    0.69
  -8  -9  -4    1.37    0.67
   8   9   4    1.95    0.67
  -8   9  -4    3.21    0.84
  -8   9  -4    1.95    0.82
  -8   9  -4    0.13    0.58
  -9  -9  -4    0.15    0.72
   9   9   4    1.62    0.81
  -9   9  -4    0.84    0.70
  -9   9  -4    1.74    0.83
  -9   9  -4    0.16    0.76
  11 -10  -4    3.47    1.09
  11 -10  -4    3.49    1.22
 -11  10   4    3.90    0.98
  11  10  -4    3.21    0.88
  11  10  -4    1.83    0.75
  10 -10  -4    0.34    0.61
  10 -10  -4   -0.02    0.59
  10  10  -4    0.69    0.54
 -10  10   4    0.41    0.58
  10  10  -4    1.11    0.63
   9 -10  -4    1.11    0.80
   9 -10  -4    0.82    0.64
   9  10  -4    1.22    0.53
   9  10  -4    1.32    0.57
  -9  10   4    1.07    0.56
   8 -10  -4    0.01    0.45
   8 -10  -4   -0.22    0.64
  -8  10   4    0.42    0.49
   8  10  -4   -0.21    0.29
   7 -10  -4    7.52    1.24
   7 -10  -4    6.94    1.42
   7 -10  -4    7.32    1.14
  -7  10   4    6.49    1.10
   7  10  -4    8.01    0.74
   7  10  -4    7.40    0.82
   7  10  -4    7.85    0.81
   6 -10  -4   14.95    1.37
   6 -10  -4   13.91    1.23
   6 -10  -4    9.70    1.69
   6 -10  -4   13.52    1.94
   6 -10  -4   15.23    1.31
   6  10  -4   13.46    0.98
  -6  10   4   17.45    1.49
   6  10  -4   14.70    0.99
   6  10  -4   13.26    0.92
   5 -10  -4   70.33    3.76
   5 -10  -4   65.32    2.69
   5 -10  -4   60.51    2.84
   5 -10  -4   68.33    3.33
   5 -10  -4   67.98    2.79
   5  10  -4   70.24    2.01
   5  10  -4   70.72    2.08
  -5  10   4   69.54    2.93
   5  10  -4   67.40    2.00
   4 -10  -4   -0.39    0.21
   4 -10  -4    0.04    0.29
   4 -10  -4   -0.35    0.42
   4 -10  -4   -0.15    0.27
   4 -10  -4   -0.04    0.27
  -4  10   4   -0.22    0.29
   4  10  -4    0.15    0.20
  -4  10   4    0.22    0.31
   3 -10  -4    3.90    0.94
   3 -10  -4    4.27    0.67
   3 -10  -4    4.07    0.78
   3 -10  -4    3.87    0.65
   3 -10  -4    4.89    1.06
   3  10  -4    3.30    0.34
  -3  10   4    4.95    0.93
  -3  10   4    3.28    0.69
   2 -10  -4    0.12    0.38
   2 -10  -4   -0.25    0.27
  -2 -10   4    0.18    0.34
   2 -10  -4    0.59    0.29
   2 -10  -4    0.45    0.33
  -2  10   4    0.22    0.28
  -2  10   4    1.25    0.48
   1 -10  -4    8.00    0.82
   1 -10  -4    7.79    0.77
   1 -10  -4    8.56    1.36
   1 -10  -4    7.92    0.70
  -1 -10   4    7.83    0.85
   1  10  -4    7.25    0.58
  -1  10   4    8.04    0.86
  -1  10   4    8.64    0.84
   0 -10  -4   72.64    2.33
   0 -10   4   71.15    2.49
   0 -10  -4   71.22    2.41
   0 -10  -4   74.23    3.21
   0  10  -4   64.52    2.36
   0  10   4   69.66    2.89
   0  10   4   66.17    3.54
   0  10  -4   70.12    2.15
  -1 -10  -4    3.14    0.53
  -1 -10  -4    4.02    0.99
  -1 -10  -4    3.71    0.60
   1 -10   4    2.85    0.61
   1  10   4    4.19    0.93
  -1  10  -4    4.07    0.66
   1  10   4    2.94    0.56
  -1  10  -4    2.55    0.68
   2 -10   4    2.56    0.53
  -2 -10  -4    2.24    0.42
  -2 -10  -4    3.08    0.93
  -2 -10  -4    2.48    0.51
   2 -10   4    2.50    0.59
  -2  10  -4    2.21    0.53
   2  10   4    1.14    0.50
  -2  10  -4    2.43    0.72
   2  10   4    2.60    0.46
  -3 -10  -4    4.39    1.10
  -3 -10  -4    3.62    0.65
   3  10   4    2.76    0.63
  -3  10  -4    3.34    0.74
  -3  10  -4    2.96    0.70
  -4 -10  -4    0.97    0.71
   4 -10   4    2.48    0.64
   4 -10   4    1.78    0.58
  -4 -10  -4    1.58    0.53
  -4  10  -4    1.55    0.60
   4  10   4    2.71    0.69
  -4  10  -4    4.03    0.85
  -4  10  -4    2.18    0.65
   5 -10   4    2.19    0.64
  -5  10  -4    1.23    0.68
  -5  10  -4    1.47    0.60
   5  10   4    0.49    0.50
   6 -10   4    7.17    1.12
  -6 -10  -4    7.45    1.13
   6  10   4    7.55    1.14
  -6  10  -4    4.65    1.00
  -6  10  -4    6.92    1.16
  -6  10  -4    9.62    1.49
  -7 -10  -4    7.48    1.06
   7 -10   4    9.95    1.39
   7  10   4    7.46    1.27
  -7  10  -4    6.92    1.27
  -7  10  -4   12.58    1.78
  -7  10  -4    9.50    1.51
  -8 -10  -4    0.02    0.52
   8 -10   4    0.38    0.49
  -8  10  -4    0.45    0.59
  -8  10  -4    0.58    0.49
   8  10   4   -1.71    0.73
  -9 -10  -4    2.06    0.89
  -9 -10  -4    2.56    0.89
   9 -10   4    2.62    1.47
  -9  10  -4    1.18    0.75
  -9  10  -4    2.68    0.93
  -9  10  -4    2.75    1.00
   9  10   4    1.65    0.94
  11 -11  -4    0.18    0.76
  11 -11  -4    0.87    0.83
 -11  11   4   -0.87    0.46
  11  11  -4   -0.56    0.49
  10 -11  -4    1.53    0.79
  10 -11  -4    0.29    0.63
  10  11  -4    0.58    0.52
 -10  11   4    0.58    0.67
  10  11  -4    0.70    0.56
   9 -11  -4   -0.57    0.46
   9 -11  -4   -0.55    0.42
   9  11  -4    0.55    0.46
   9  11  -4   -0.23    0.39
  -9  11   4    0.24    0.53
   8 -11  -4    5.43    1.29
   8 -11  -4    3.23    1.04
   8  11  -4    5.65    0.86
  -8  11   4    4.68    1.03
   8  11  -4    5.41    0.85
   8  11  -4    5.31    0.62
   7 -11  -4    2.51    0.74
   7 -11  -4    2.67    1.00
   7  11  -4    2.74    0.58
  -7  11   4    2.36    0.75
   7  11  -4    4.02    0.93
   7  11  -4    3.17    0.60
   6 -11  -4    4.10    0.85
   6 -11  -4    5.77    1.05
   6 -11  -4    6.94    1.48
   6  11  -4    6.93    0.74
  -6  11   4    4.81    0.91
   6  11  -4    6.69    0.65
   6  11  -4    7.01    0.69
   5 -11  -4    0.41    0.55
   5 -11  -4   -0.32    0.26
   5 -11  -4    0.69    0.38
   5 -11  -4   -0.35    0.31
  -5  11   4    0.11    0.40
   4 -11  -4    2.36    0.61
   4 -11  -4    2.45    0.69
   4 -11  -4    1.15    0.62
   4 -11  -4    1.03    0.79
   4 -11  -4    1.43    0.47
  -4  11   4    3.64    0.81
   3 -11  -4    0.18    0.43
   3 -11  -4    1.53    0.55
   3 -11  -4    1.11    0.42
   3 -11  -4    1.18    0.43
  -3 -11   4    1.06    0.51
  -3  11   4    0.98    0.41
  -3  11   4    0.77    0.46
   2 -11  -4    0.51    0.31
   2 -11  -4    0.09    0.28
   2 -11  -4    0.63    0.58
   2 -11  -4    0.68    0.33
   2 -11  -4    0.36    0.31
  -2 -11   4    0.80    0.47
  -2  11   4   -0.14    0.27
  -2  11   4    0.17    0.35
   1 -11  -4    0.10    0.38
  -1 -11   4   -0.09    0.30
   1 -11  -4    0.06    0.23
   1 -11  -4    0.42    0.27
   1 -11  -4   -0.02    0.21
  -1  11   4    0.41    0.32
   0 -11  -4    9.46    0.78
   0 -11  -4    8.49    1.44
   0 -11  -4    7.71    0.80
   0 -11   4    8.03    0.88
   0  11   4    7.78    1.00
   0  11  -4   10.10    1.31
   0  11  -4    7.63    0.69
   0  11   4    7.32    0.81
   1 -11   4    8.28    1.27
  -1 -11  -4    7.05    1.33
  -1 -11  -4    6.25    0.96
  -1 -11  -4    7.21    0.69
   1 -11   4    7.05    0.64
   1  11   4    8.22    0.84
  -1  11  -4    9.24    1.29
  -1  11  -4    6.21    0.72
   1  11   4    8.15    0.78
  -2 -11  -4    2.54    0.52
   2 -11   4    2.16    0.57
  -2 -11  -4    3.38    0.53
  -2 -11  -4    3.17    0.97
   2  11   4    2.18    0.60
  -2  11  -4    4.10    0.75
  -2  11  -4    2.44    0.67
   2  11   4    3.13    0.51
  -3 -11  -4    0.36    0.61
   3 -11   4    1.37    0.49
  -3 -11  -4    0.47    0.33
   3 -11   4    0.37    0.30
   3  11   4    0.21    0.41
  -3  11  -4    0.14    0.35
  -3  11  -4    0.35    0.42
  -3  11  -4    0.53    0.42
  -4 -11  -4   -0.62    0.25
  -4 -11  -4    0.15    0.52
  -4  11  -4    0.47    0.40
  -4  11  -4   -0.15    0.32
   4  11   4   -0.12    0.34
  -4  11  -4    0.74    0.46
  -5 -11  -4    0.64    0.44
   5 -11   4   -0.32    0.30
  -5  11  -4   -0.36    0.38
  -5  11  -4    0.30    0.42
  -5  11  -4   -0.45    0.35
   5  11   4   -0.57    0.34
   6 -11   4    1.21    0.56
  -6 -11  -4    0.57    0.50
  -6 -11  -4    0.69    0.45
  -6  11  -4    1.32    0.68
  -6  11  -4    0.99    0.55
   6  11   4    2.45    0.75
  -6  11  -4    1.27    0.58
   7 -11   4    0.10    0.42
  -7 -11  -4   -0.57    0.51
  -7 -11  -4    0.38    0.50
   7  11   4    0.45    0.58
  -7  11  -4   -0.03    0.49
  -7  11  -4    1.11    0.60
  -7  11  -4    1.85    0.74
  -8 -11  -4    0.21    0.70
   8 -11   4    0.18    0.48
   8  11   4    0.15    0.71
  -8  11  -4    1.35    0.68
  -8  11  -4    1.14    0.69
  -8  11  -4   -0.19    0.60
  10 -12  -4    0.31    0.75
  10 -12  -4    0.77    0.71
 -10  12   4   -0.40    0.59
  10  12  -4    0.66    0.54
  10  12  -4    0.08    0.43
   9 -12  -4    0.83    0.67
   9 -12  -4    1.43    0.90
   9  12  -4   -0.57    0.39
  -9  12   4    0.01    0.58
   9  12  -4    0.39    0.42
   8 -12  -4    0.74    0.68
   8 -12  -4    1.33    0.78
   8  12  -4    0.50    0.43
  -8  12   4    1.02    0.67
   8  12  -4    0.55    0.44
   7 -12  -4    1.99    1.09
   7 -12  -4    1.93    0.75
  -7  12   4    1.91    0.70
   7  12  -4    1.57    0.47
   7  12  -4    1.79    0.48
   7  12  -4    2.14    0.46
   6 -12  -4    0.16    0.52
   6 -12  -4   -0.11    0.37
   6  12  -4    0.22    0.31
  -6  12   4   -0.38    0.32
   5 -12  -4    8.95    1.50
   5 -12  -4    7.07    1.04
   5 -12  -4    7.65    1.20
   5 -12  -4    8.21    0.95
  -5  12   4    8.20    1.32
   4 -12  -4    6.63    0.91
   4 -12  -4    5.28    0.87
   4 -12  -4    5.42    0.86
   4 -12  -4    6.03    1.18
  -4  12   4    3.40    0.84
   3 -12  -4   63.02    2.72
  -3 -12   4   59.76    2.83
   3 -12  -4   62.98    2.32
   3 -12  -4   63.17    3.16
  -3  12   4   60.44    2.69
  -3  12   4   64.54    2.54
   2 -12  -4   -0.37    0.25
   2 -12  -4   -0.03    0.42
   2 -12  -4   -0.07    0.23
  -2 -12   4   -0.08    0.37
   2 -12  -4    0.25    0.28
   2 -12  -4    0.25    0.34
  -2  12   4    0.39    0.32
   2  12  -4   -0.06    0.34
  -2  12   4   -0.68    0.21
   1 -12  -4   17.48    1.04
   1 -12  -4   18.00    1.06
   1 -12  -4   18.32    1.10
   1 -12  -4   19.87    1.35
   1 -12  -4   20.66    1.79
  -1  12   4   17.68    1.31
   1  12  -4   18.34    1.45
  -1  12   4   19.92    1.25
   0 -12  -4    0.01    0.23
   0 -12  -4    0.39    0.30
   0 -12  -4    0.32    0.28
   0 -12   4   -0.24    0.29
   0 -12  -4    0.18    0.48
   0  12  -4    0.53    0.30
   0  12   4    0.16    0.28
   0  12   4    0.80    0.43
   0  12  -4    0.33    0.39
  -1 -12  -4    0.43    0.49
  -1 -12  -4   -0.01    0.26
   1 -12   4   -0.58    0.26
  -1 -12  -4    0.23    0.27
   1  12   4    0.49    0.37
  -1  12  -4    0.12    0.29
  -1  12  -4    0.09    0.27
  -1  12  -4    0.13    0.35
   1  12   4    0.85    0.43
  -2 -12  -4   25.14    2.10
  -2 -12  -4   28.71    1.31
  -2 -12  -4   27.04    1.30
   2 -12   4   26.61    1.61
  -2  12  -4   26.36    1.52
  -2  12  -4   25.95    1.49
   2  12   4   27.65    1.32
  -2  12  -4   24.26    1.78
   2  12   4   28.82    1.58
  -3 -12  -4    7.07    1.53
  -3 -12  -4    8.86    0.79
  -3  12  -4   10.37    1.45
  -3  12  -4    8.91    0.99
  -3  12  -4    9.59    1.00
   3  12   4    7.94    1.04
   4 -12   4   33.89    1.90
  -4 -12  -4   33.58    1.58
  -4 -12  -4   33.65    2.61
  -4  12  -4   35.45    2.31
  -4  12  -4   33.78    1.99
   4  12   4   33.05    1.86
  -4  12  -4   34.46    2.00
   5 -12   4   11.02    1.17
  -5 -12  -4   13.78    1.09
  -5 -12  -4    9.38    2.81
   5  12   4   16.35    1.42
  -5  12  -4   13.19    1.34
  -5  12  -4   11.59    1.31
  -5  12  -4   13.85    1.51
  -6 -12  -4    0.53    0.45
   6 -12   4    0.60    0.50
  -6  12  -4    0.37    0.48
  -6  12  -4   -0.97    0.38
   6  12   4   -0.81    0.50
  -6  12  -4   -0.35    0.46
   7 -12   4    0.70    0.52
  -7 -12  -4   -0.80    0.50
  -7 -12  -4   -0.92    0.78
  -7  12  -4    0.23    0.63
  -7  12  -4    0.24    0.53
  -7  12  -4    1.74    0.69
   7  12   4   -0.15    0.63
  -8 -12  -4    2.07    0.83
  -8 -12  -4    3.40    1.07
   8 -12   4    1.19    0.72
  -8  12  -4    1.86    0.81
   8  12   4    2.55    0.89
  -8  12  -4    2.27    0.80
  10 -13  -4    0.64    0.75
  10 -13  -4    0.11    0.77
  10  13  -4    1.82    0.74
  10  13  -4    3.07    0.80
   9 -13  -4    1.78    0.94
   9 -13  -4    1.42    0.80
   9  13  -4    3.27    0.68
  -9  13   4    1.80    0.82
   9  13  -4    0.86    0.53
   8 -13  -4    2.22    0.92
   8 -13  -4    2.31    0.90
   8  13  -4    2.81    0.62
   8  13  -4    2.77    0.63
  -8  13   4    4.01    0.97
   7 -13  -4    0.93    0.73
   7 -13  -4    1.18    0.64
  -7  13   4    1.02    0.56
   7  13  -4    0.55    0.37
   7  13  -4    1.16    0.43
   7  13  -4    1.32    0.40
   6 -13  -4    1.61    1.19
   6 -13  -4    1.67    0.64
   6  13  -4    1.04    0.48
   6  13  -4    2.88    0.59
  -6  13   4    1.67    0.72
   5 -13  -4    4.61    0.85
   5 -13  -4    5.18    1.31
  -5  13   4    3.69    1.11
   5  13  -4    5.69    0.85
   4 -13  -4    1.72    0.65
   4 -13  -4    1.01    0.70
   4 -13  -4    1.60    0.48
   4  13  -4    1.39    0.52
  -4  13   4    2.05    0.71
  -3 -13   4    1.12    0.66
   3 -13  -4    1.76    0.57
   3 -13  -4    1.92    0.51
   3 -13  -4    2.89    0.92
   3 -13  -4    1.73    0.67
   3 -13  -4    1.98    0.54
  -3  13   4    1.68    0.63
  -3  13   4    2.01    0.60
   3  13  -4    1.66    0.59
   2 -13  -4    0.93    0.37
   2 -13  -4    0.49    0.41
  -2 -13   4    0.68    0.51
   2 -13  -4    1.09    0.75
   2 -13  -4    0.26    0.32
   2 -13  -4    0.76    0.35
  -2  13   4    1.70    0.59
   2  13  -4    0.86    0.51
  -2  13   4    1.07    0.59
   1 -13  -4    6.06    0.73
   1 -13  -4    5.03    0.57
   1 -13  -4    6.02    0.66
   1 -13  -4    6.63    1.02
   1 -13  -4    4.16    1.03
  -1 -13   4    4.77    0.99
  -1  13   4    4.63    0.83
  -1  13   4    4.74    0.78
   1  13  -4    4.44    0.44
   1  13  -4    4.01    0.82
   0 -13  -4    1.29    0.47
   0 -13  -4    1.49    0.42
   0 -13  -4    1.75    0.38
   0 -13  -4    1.35    0.37
   0 -13  -4    1.59    0.80
   0 -13   4    2.18    0.67
   0  13  -4    1.96    0.42
   0  13  -4    1.72    0.40
   0  13  -4    1.89    0.62
   0  13   4    1.63    0.79
   0  13   4    1.28    0.51
  -1 -13  -4    1.37    0.44
   1 -13   4    1.10    0.52
  -1 -13  -4    1.59    0.38
  -1 -13  -4    0.77    0.31
  -1 -13  -4    0.72    0.64
  -1  13  -4    0.66    0.34
  -1  13  -4    0.91    0.37
   1  13   4    0.29    0.34
  -1  13  -4    0.39    0.47
   1  13   4    0.73    0.42
  -2 -13  -4   22.41    1.11
   2 -13   4   22.77    1.20
   2 -13   4   21.84    1.54
  -2 -13  -4   22.55    2.06
   2 -13   4   21.67    1.20
   2  13   4   24.13    1.47
  -2  13  -4   21.87    1.39
  -2  13  -4   20.93    1.35
  -2  13  -4   24.97    1.86
   2  13   4   23.41    1.42
  -3 -13  -4    1.12    0.86
  -3 -13  -4    1.33    0.39
   3 -13   4    0.72    0.46
  -3  13  -4    0.66    0.48
  -3  13  -4    1.11    0.66
  -3  13  -4    0.71    0.45
  -4 -13  -4   13.98    2.79
   4 -13   4   13.63    1.29
  -4 -13  -4   13.26    0.97
  -4  13  -4   12.13    1.21
   4  13   4   13.58    1.24
  -4  13  -4   13.82    1.88
  -4  13  -4   11.31    1.23
  -5 -13  -4    8.41    1.68
  -5 -13  -4   11.61    0.99
   5 -13   4   10.58    1.19
  -5 -13  -4   11.26    1.11
   5  13   4   11.98    1.25
  -5  13  -4   10.52    1.44
  -5  13  -4   11.66    1.27
  -5  13  -4    9.14    1.51
  -6 -13  -4    0.48    0.51
   6 -13   4   -0.13    0.41
  -6 -13  -4    0.33    0.53
  -6  13  -4    0.64    0.52
   6  13   4   -0.08    0.66
  -6  13  -4   -0.54    0.39
  -6  13  -4    0.70    0.54
   7 -13   4    5.32    1.11
  -7 -13  -4    3.76    0.87
  -7  13  -4    3.48    0.91
  -7  13  -4    5.91    1.21
   7  13   4    6.68    1.14
  -7  13  -4    5.21    1.21
   9 -14  -4    3.80    1.33
   9 -14  -4    3.80    1.22
   9  14  -4    3.22    0.68
   9  14  -4    2.83    0.61
  -9  14   4    2.45    0.95
   8 -14  -4    1.55    0.76
   8 -14  -4    2.71    1.05
   8  14  -4    2.39    0.61
   8  14  -4    3.64    0.62
  -8  14   4    2.07    0.88
   7 -14  -4    0.27    0.48
   7 -14  -4   -0.28    0.56
   7  14  -4    0.15    0.33
   7  14  -4    0.37    0.33
  -7  14   4    0.16    0.39
   6 -14  -4    1.04    0.81
   6 -14  -4   -0.06    0.37
   6  14  -4    0.05    0.35
  -6  14   4   -0.18    0.37
   6  14  -4    1.20    0.44
   5 -14  -4    9.27    1.76
  -5  14   4   10.89    1.64
   5  14  -4   10.49    1.06
   4 -14  -4    7.04    1.50
   4 -14  -4    5.55    0.90
  -4  14   4    6.40    1.20
   4  14  -4    4.58    0.84
  -3 -14   4   61.77    3.07
   3 -14  -4   61.47    3.39
   3 -14  -4   59.15    2.76
   3 -14  -4   60.28    2.35
   3 -14  -4   57.04    2.22
  -3  14   4   59.81    2.82
   3  14  -4   59.88    2.62
   2 -14  -4   24.45    1.33
   2 -14  -4   23.75    1.28
  -2 -14   4   25.28    1.86
   2 -14  -4   25.56    2.15
   2 -14  -4   22.43    1.62
   2 -14  -4   23.23    1.40
   2  14  -4   24.22    1.69
  -2  14   4   22.68    1.45
  -2  14   4   22.35    1.66
   1 -14  -4    1.08    0.40
   1 -14  -4    0.31    0.38
   1 -14  -4    1.63    0.40
  -1 -14   4    2.84    0.87
   1 -14  -4    1.53    0.40
   1 -14  -4    2.07    0.96
  -1  14   4    0.88    0.60
  -1  14   4    0.88    0.51
   1  14  -4    1.10    0.54
   0 -14  -4   11.72    0.76
   0 -14  -4    9.45    1.49
   0 -14   4   10.51    1.18
   0 -14  -4   12.02    1.09
   0 -14  -4   11.85    1.46
   0  14  -4   12.29    0.82
   0  14  -4   14.60    1.39
   0  14  -4   10.43    0.78
   0  14   4   11.92    1.13
   0  14   4   10.68    0.95
  -1 -14  -4   24.03    1.05
  -1 -14  -4   23.62    2.15
  -1 -14  -4   25.00    1.47
   1 -14   4   26.45    1.74
   1  14   4   24.89    1.48
   1  14   4   23.64    1.39
  -1  14  -4   23.76    1.32
  -1  14  -4   23.75    1.85
  -1  14  -4   26.25    1.35
  -2 -14  -4    2.36    0.39
   2 -14   4    1.88    0.43
   2 -14   4    2.51    0.72
  -2 -14  -4    1.04    0.85
  -2  14  -4    3.06    0.62
   2  14   4    2.61    0.62
  -2  14  -4    1.72    0.78
  -2  14  -4    1.22    0.63
   3 -14   4    0.35    0.36
  -3 -14  -4   -0.82    0.67
   3 -14   4    0.66    0.39
   3  14   4    0.89    0.34
  -3  14  -4    0.92    0.61
   3  14   4    0.43    0.40
  -3  14  -4    0.64    0.42
  -3  14  -4    0.83    0.46
   4 -14   4    0.44    0.45
   4 -14   4    0.45    0.39
  -4 -14  -4    1.19    0.82
  -4  14  -4   -0.23    0.31
  -4  14  -4    0.49    0.40
   4  14   4    0.51    0.47
   5 -14   4    0.73    0.51
  -5 -14  -4    1.42    0.93
  -5 -14  -4    1.03    0.46
  -5  14  -4    0.67    0.54
  -5  14  -4    0.56    0.53
  -5  14  -4    2.00    0.75
  -6 -14  -4    0.21    0.50
   6 -14   4    1.35    0.72
  -6 -14  -4    0.64    0.92
  -6  14  -4    0.31    0.62
  -6  14  -4    0.72    0.55
   6  14   4   -0.54    0.45
  -6  14  -4    0.97    0.53
   7 -14   4    2.89    1.03
  -7 -14  -4    3.76    0.89
   7 -14   4    4.26    1.09
  -7  14  -4    2.81    1.12
   7  14   4    3.72    1.01
  -7  14  -4    1.88    0.85
  -7  14  -4    2.77    1.24
   8 -15  -4    0.06    0.62
   8 -15  -4    0.08    0.58
  -8  15   4   -0.49    0.42
   7 -15  -4    0.50    0.70
   7 -15  -4    1.56    0.71
   7  15  -4    0.76    0.44
  -7  15   4    0.54    0.54
   7  15  -4    0.83    0.44
   6 -15  -4    0.21    0.64
   6  15  -4    1.04    0.49
  -6  15   4   -0.62    0.42
   5 -15  -4    5.66    1.29
   5  15  -4    6.95    0.98
  -5  15   4    5.69    1.07
   4 -15  -4    1.08    0.80
  -4  15   4   -0.11    0.41
   4  15  -4    0.86    0.46
   3 -15  -4    5.20    0.80
  -3 -15   4    4.92    1.20
   3 -15  -4    6.04    1.36
   3  15  -4    6.16    1.02
  -3  15   4    5.23    1.04
   2 -15  -4    1.30    0.40
  -2 -15   4    1.03    0.67
   2 -15  -4    1.06    1.11
   2 -15  -4    0.23    0.38
   2 -15  -4    0.20    0.34
   2  15  -4    1.25    0.59
  -2  15   4    1.58    0.61
  -2  15   4    1.21    0.46
   1 -15  -4   19.71    1.09
   1 -15  -4   21.85    1.92
   1 -15  -4   19.12    2.95
  -1 -15   4   22.64    1.77
  -1  15   4   22.72    1.40
   1  15  -4   18.48    1.59
  -1  15   4   22.10    1.59
   0 -15  -4   34.60    1.28
   0 -15   4   41.38    2.36
   0 -15  -4   41.26    2.88
   0 -15  -4   36.73    1.95
   0  15   4   37.19    1.79
   0  15  -4   37.04    1.41
   0  15  -4   37.68    2.38
   0  15   4   36.71    1.97
  -1 -15  -4    0.83    0.74
   1 -15   4    0.42    0.47
  -1 -15  -4    0.16    0.23
  -1  15  -4   -0.08    0.38
   1  15   4    0.89    0.47
  -1  15  -4    0.63    0.33
  -1  15  -4    0.68    0.36
   2 -15   4    1.93    0.72
  -2 -15  -4    1.00    0.74
  -2  15  -4    2.45    0.57
   2  15   4    0.47    0.41
   2  15   4    1.12    0.43
  -2  15  -4    1.55    0.66
  -2  15  -4    1.61    0.49
  -3 -15  -4    1.59    0.89
   3 -15   4    1.94    0.73
   3 -15   4    1.72    0.53
  -3  15  -4    3.13    0.70
   3  15   4    2.27    0.61
  -3  15  -4    3.01    0.69
   3  15   4    3.11    0.55
  -3  15  -4    1.55    0.73
   4 -15   4    5.65    0.89
  -4 -15  -4    5.73    1.53
   4 -15   4    4.77    1.00
   4  15   4    6.92    1.02
  -4  15  -4    6.63    1.24
  -4  15  -4    7.96    1.18
  -4  15  -4    5.38    0.97
  -5 -15  -4   -0.07    0.34
   5 -15   4    1.41    0.69
  -5 -15  -4   -0.99    0.45
   5 -15   4    0.05    0.49
   5  15   4   -0.44    0.37
  -5  15  -4    0.26    0.50
  -5  15  -4    0.14    0.47
  -5  15  -4    0.34    0.53
   6 -15   4   -0.07    0.53
   6 -15   4    0.30    0.44
  -6  15  -4    0.12    0.54
  -6  15  -4    0.99    0.54
  -6  15  -4   -0.13    0.48
   6  15   4   -0.27    0.48
   8 -16  -4    1.61    1.14
   8 -16  -4    0.58    0.83
  -8  16   4   -0.76    0.55
   7 -16  -4    1.14    0.83
   7 -16  -4    2.44    0.76
  -7  16   4   -0.02    0.58
   7  16  -4    1.60    0.57
   7  16  -4    1.38    0.50
   6 -16  -4   -0.43    0.57
  -6  16   4   -0.21    0.38
   6  16  -4    0.05    0.44
   5 -16  -4    0.53    0.42
   5 -16  -4    0.30    0.57
   5  16  -4    0.03    0.40
  -5  16   4    0.43    0.59
   4 -16  -4    1.66    0.53
   4 -16  -4    0.89    0.69
   4  16  -4    1.34    0.54
  -4  16   4    1.52    0.69
   3 -16  -4   -0.58    0.38
  -3 -16   4   -0.56    0.38
  -3  16   4    0.46    0.47
   3  16  -4   -0.38    0.34
   2 -16  -4    0.30    0.30
  -2 -16   4    0.18    0.45
   2 -16  -4    0.05    0.47
  -2  16   4    0.25    0.43
   2  16  -4    0.37    0.42
   1 -16  -4    5.29    0.96
  -1 -16   4    6.52    1.27
   1 -16  -4    8.03    1.69
  -1  16   4    7.49    1.00
  -1  16   4    5.84    1.01
   1  16  -4    5.07    1.66
   0 -16  -4    4.77    1.30
   0 -16   4    1.82    0.75
   0  16   4    4.07    0.74
   0  16   4    2.20    0.62
   0  16  -4    3.90    0.51
   0  16  -4    3.20    0.91
   1 -16   4    2.73    0.88
  -1 -16  -4    0.70    0.75
  -1  16  -4    2.61    0.84
   1  16   4    2.74    0.67
   1  16   4    2.41    0.58
  -1  16  -4    2.20    0.50
  -1  16  -4    1.59    0.45
   2 -16   4    0.45    0.52
  -2 -16  -4    2.91    1.11
  -2  16  -4    0.66    0.48
  -2  16  -4    0.95    0.43
   2  16   4    1.62    0.51
  -2  16  -4    1.35    0.48
   2  16   4    0.59    0.42
  -3 -16  -4    1.23    0.85
   3 -16   4    0.30    0.43
  -3  16  -4   -0.06    0.41
  -3  16  -4    0.22    0.42
   3  16   4    0.08    0.33
   3  16   4    0.51    0.45
  -3  16  -4    0.37    0.43
  -4 -16  -4    0.83    0.74
   4 -16   4    0.10    0.46
   4 -16   4   -0.68    0.40
  -4  16  -4    0.44    0.46
  -4  16  -4   -0.94    0.44
   4  16   4   -0.20    0.40
  -4  16  -4    0.03    0.45
   5 -16   4    4.75    1.08
  -5 -16  -4    5.03    1.53
   5 -16   4    4.77    0.92
   5  16   4    6.43    1.05
  -5  16  -4    5.50    1.08
  -5  16  -4    6.78    1.39
  -5  16  -4    5.09    1.00
   7 -17  -4    4.25    1.34
   7 -17  -4    3.37    1.46
   7  17  -4    2.56    0.66
   7  17  -4    4.81    0.73
  -7  17   4    2.57    1.27
   6 -17  -4    0.94    0.66
   6 -17  -4    0.29    0.54
   6  17  -4   -0.11    0.46
  -6  17   4    0.52    0.53
   5 -17  -4    0.80    0.70
   5 -17  -4    0.95    0.52
  -5  17   4    1.55    0.72
   5  17  -4    0.44    0.45
   4 -17  -4   -0.40    0.43
   4 -17  -4    0.22    0.54
  -4  17   4   -1.04    0.37
   4  17  -4   -0.25    0.33
  -3 -17   4    1.26    0.72
   3 -17  -4    1.34    0.87
   3 -17  -4    2.40    0.58
  -3  17   4    0.74    0.51
   3  17  -4    1.17    0.63
  -2 -17   4    3.43    1.05
   2 -17  -4    1.71    0.81
  -2  17   4    2.60    0.77
   2  17  -4    1.25    0.72
  -1 -17   4    0.37    0.50
   1 -17  -4    0.46    0.61
  -1  17   4    0.38    0.38
   1  17  -4    1.45    0.68
   0 -17   4    0.96    0.62
   0 -17  -4   -0.37    0.37
   0  17  -4   -0.54    0.39
   0  17   4    0.73    0.37
   0  17   4    0.57    0.45
  -1 -17  -4    2.35    1.04
   1 -17   4    1.79    0.78
   1  17   4    1.39    0.53
  -1  17  -4    0.62    0.34
   1  17   4    1.29    0.48
  -1  17  -4    0.05    0.51
   2 -17   4   -0.31    0.45
  -2 -17  -4    0.61    0.67
   2  17   4   -0.30    0.32
  -2  17  -4   -0.34    0.29
  -2  17  -4   -0.38    0.30
   2  17   4   -0.24    0.35
  -3 -17  -4    2.61    1.16
   3 -17   4    2.91    0.89
  -3  17  -4    2.87    0.72
   3  17   4    3.13    0.61
  -3  17  -4    5.11    1.21
  -3  17  -4    2.64    0.67
   3  17   4    2.10    0.65
  -4 -17  -4   -0.73    0.45
   4 -17   4    0.03    0.52
  -4  17  -4   -0.49    0.38
  -4  17  -4   -0.62    0.50
  -4  17  -4    0.46    0.50
   6 -18  -4    0.39    0.86
   6 -18  -4    1.05    0.64
  -6  18   4   -1.46    0.82
   6  18  -4    0.04    0.38
   5 -18  -4    7.32    1.69
   5 -18  -4    9.10    1.20
  -5  18   4    8.53    1.47
   5  18  -4    8.07    1.16
   4 -18  -4    1.41    0.88
   4 -18  -4    0.85    0.64
  -4  18   4    1.22    0.67
   4  18  -4    0.80    0.46
   3 -18  -4    0.76    0.70
  -3  18   4    0.90    0.71
   3  18  -4    0.52    0.50
  -2 -18   4    0.78    1.09
   2 -18  -4    0.22    0.62
   2  18  -4    0.85    0.58
  -2  18   4    0.40    0.49
   1 -18  -4    4.35    1.26
  -1 -18   4    3.46    1.12
   1  18  -4    3.57    0.96
  -1  18   4    3.80    0.84
   0 -18   4    0.53    0.59
   0 -18  -4    0.56    0.64
   0  18   4    1.04    0.50
   0  18   4    0.32    0.38
   0  18  -4   -0.11    0.51
  -1 -18  -4    3.39    1.16
   1 -18   4    3.16    0.96
   1  18   4    3.26    0.68
  -1  18  -4    3.60    0.93
  -1  18  -4    3.79    0.56
   1  18   4    2.93    0.68
  -2 -18  -4    0.36    0.61
   2 -18   4    0.36    0.54
  -2  18  -4    0.35    0.42
  -2  18  -4    0.32    0.42
  -2  18  -4    0.17    0.47
   2  18   4    0.31    0.45
   2  18   4    0.85    0.43
  -3 -18  -4    0.28    0.66
   3 -18   4   -0.82    0.47
  -3  18  -4    0.73    0.42
  -3  18  -4    0.04    0.43
   3  18   4   -1.00    0.66
   3  18   4    0.07    0.35
  -3  18  -4   -0.39    0.36
   4 -19  -4    4.64    1.45
   4  19  -4    3.57    0.83
  -4  19   4    3.31    0.95
  -3 -19   4   -0.21    0.54
   3 -19  -4   -0.17    0.43
   3  19  -4    0.01    0.52
  -3  19   4   -0.18    0.46
   2 -19  -4    0.19    0.52
  -2 -19   4    1.31    0.72
  -2  19   4    0.98    0.59
   2  19  -4    0.11    0.51
   1 -19  -4    6.95    1.69
  -1 -19   4    7.03    2.55
   1  19  -4    6.41    1.27
  -1  19   4    8.18    1.29
   0 -19   4   -0.89    0.51
   0 -19  -4   -0.01    0.56
   0  19   4    0.03    0.49
   0  19  -4    0.44    0.60
   1 -19   4    6.05    1.49
  -1 -19  -4    6.13    1.53
   1  19   4    4.53    0.92
  -1  19  -4    7.12    1.42
   1  19   4    3.75    0.80
  -2 -19  -4    8.81    1.85
   2 -19   4   11.45    1.81
   2  19   4    9.48    1.01
  -2  19  -4    7.72    0.88
  -2  19  -4   11.32    1.63
   2  19   4    8.11    1.06
 -13   0   5    0.33    0.64
  13   0  -5    0.65    0.67
  12   0  -5    0.64    0.56
  12   0  -5   -0.58    0.36
  12   0  -5   -0.08    0.64
 -12   0   5   -0.45    0.33
  11   0  -5    0.32    0.51
  11   0  -5    0.62    0.48
 -11   0   5    0.20    0.38
  11   0  -5   -0.33    0.54
  10   0  -5   -0.53    0.45
  10   0  -5    0.91    0.43
 -10   0   5   -0.25    0.26
  10   0  -5    0.08    0.42
  10   0  -5    0.78    0.54
   9   0  -5    0.84    0.55
  -9   0   5    1.42    0.48
  -8   0   5   -0.09    0.31
   8   0  -5    0.06    0.36
   8   0  -5   -0.33    0.32
   8   0  -5    0.43    0.45
   8   0  -5   -0.70    0.22
   7   0  -5   -0.27    0.25
   7   0  -5   -0.05    0.32
   7   0  -5    0.03    0.29
   7   0  -5    0.18    0.35
  -7   0   5    0.10    0.30
   6   0  -5   -0.12    0.28
   6   0  -5    0.23    0.36
   6   0  -5    0.14    0.27
   6   0  -5   -0.29    0.25
  -6   0   5    0.00    0.30
  -5   0   5   -0.10    0.24
   5   0  -5    0.37    0.32
   5   0  -5   -0.06    0.30
   5   0  -5    0.30    0.34
   5   0  -5    0.41    0.26
  -5   0   5    0.06    0.31
  -4   0   5   -0.34    0.23
   4   0  -5    0.05    0.29
   4   0  -5   -0.21    0.27
  -4   0   5   -0.18    0.20
   3   0  -5   -0.02    0.23
  -3   0   5   -0.03    0.21
  -3   0   5   -0.02    0.25
   3   0  -5   -0.47    0.21
   2   0  -5    0.19    0.28
  -2   0   5    0.08    0.27
   2   0  -5    0.12    0.23
   1   0  -5    0.22    0.28
   1   0  -5   -0.01    0.29
  -1   0   5   -0.09    0.24
   1   0  -5    0.17    0.19
   0   0  -5    0.50    0.35
   0   0   5    0.00    0.16
   0   0  -5    0.02    0.22
   0   0  -5   -0.13    0.17
   1   0   5    0.28    0.37
   1   0   5    0.24    0.21
  -1   0  -5    0.07    0.22
  -1   0  -5   -0.02    0.33
  -2   0  -5    0.11    0.33
   2   0   5    0.16    0.22
   2   0   5   -0.30    0.21
  -3   0  -5   -0.12    0.35
   3   0   5   -0.21    0.24
   3   0   5   -0.03    0.23
   4   0   5    0.28    0.34
  -4   0  -5   -0.11    0.32
   5   0   5   -0.30    0.25
  -5   0  -5    0.56    0.44
  -5   0  -5    0.23    0.40
   6   0   5    0.05    0.39
  -6   0  -5   -0.03    0.32
  -6   0  -5    0.12    0.53
  -7   0  -5    0.31    0.34
  -7   0  -5    0.37    0.52
   7   0   5   -0.48    0.48
  -8   0  -5   -0.40    0.54
  -8   0  -5    1.05    0.77
  -8   0  -5   -0.57    0.34
   8   0   5   -0.87    0.61
  -9   0  -5    0.37    0.52
  -9   0  -5   -0.45    0.40
  -9   0  -5    0.13    0.64
 -10   0  -5    0.34    0.69
 -10   0  -5   -0.87    0.71
 -10   0  -5   -0.87    0.40
 -13  -1   5    1.39    0.60
  13  -1  -5    2.55    1.01
  13   1  -5    1.15    0.77
 -13   1   5    1.21    0.63
  13   1  -5    2.03    0.64
  12  -1  -5    0.62    0.66
  12  -1  -5    1.45    0.76
 -12  -1   5    1.22    0.60
  12   1  -5    3.02    0.78
  12   1  -5    1.14    0.72
 -12   1   5    0.99    0.57
 -11  -1   5    0.76    0.44
  11  -1  -5    0.07    0.41
  11  -1  -5   -0.06    0.61
  11  -1  -5    0.76    0.64
 -11   1   5    0.38    0.47
  11   1  -5   -0.03    0.53
  11   1  -5    0.21    0.45
  11   1  -5    1.54    0.66
  10  -1  -5    5.56    1.09
  10  -1  -5    5.74    1.12
 -10  -1   5    5.43    0.91
  10  -1  -5    6.16    1.22
  10  -1  -5    4.73    0.86
 -10   1   5    7.22    1.06
  10   1  -5    5.36    0.89
  10   1  -5    4.88    1.03
  10   1  -5    6.93    1.82
  10   1  -5    6.89    1.64
  -9  -1   5    7.04    0.99
   9  -1  -5    6.79    1.16
   9  -1  -5    7.23    1.38
   9  -1  -5    5.87    0.87
   9  -1  -5    7.61    1.21
   9   1  -5    7.95    1.30
  -9   1   5    7.03    1.00
   9   1  -5    5.74    0.94
   9   1  -5    7.79    1.15
   9   1  -5    5.62    0.87
   8  -1  -5    0.78    0.50
   8  -1  -5    1.38    0.62
  -8  -1   5    0.08    0.30
   8  -1  -5   -0.03    0.28
   8   1  -5    0.81    0.52
   8   1  -5    0.58    0.34
   8   1  -5    0.45    0.51
   8   1  -5    0.42    0.39
  -8   1   5    0.37    0.38
   7  -1  -5   14.31    1.09
  -7  -1   5   14.43    1.11
   7  -1  -5   15.44    1.24
   7  -1  -5   16.99    1.40
   7  -1  -5   15.58    1.26
   7   1  -5   12.88    1.02
   7   1  -5   14.12    1.26
   7   1  -5   14.63    1.18
  -7   1   5   14.09    1.13
   7   1  -5   14.02    1.18
   6  -1  -5   32.16    1.60
   6  -1  -5   32.93    1.72
   6  -1  -5   32.60    1.71
  -6  -1   5   33.79    1.61
   6  -1  -5   29.90    1.74
   6   1  -5   33.20    1.58
   6   1  -5   31.65    1.65
   6   1  -5   35.73    1.82
   6   1  -5   32.16    1.66
  -6   1   5   32.00    1.62
   5  -1  -5   83.45    2.81
   5  -1  -5   80.65    2.87
  -5  -1   5   81.47    2.71
   5  -1  -5   84.81    2.71
   5  -1  -5   87.88    3.03
  -5  -1   5   81.24    2.65
  -5   1   5   79.94    2.71
   5   1  -5   82.75    2.68
   5   1  -5   83.02    3.71
   5   1  -5   82.51    2.73
   5   1  -5   83.59    2.82
  -5   1   5   84.66    2.83
   4  -1  -5   17.17    1.11
  -4  -1   5   17.04    1.09
   4  -1  -5   18.64    1.22
  -4  -1   5   17.83    1.62
  -4   1   5   17.03    1.13
  -4   1   5   18.86    1.14
   4   1  -5   18.33    1.16
   4   1  -5   19.02    1.12
  -3  -1   5    0.15    0.28
  -3  -1   5   -0.14    0.23
   3  -1  -5   -0.20    0.21
   3  -1  -5   -0.16    0.30
   3   1  -5   -0.27    0.22
   3   1  -5   -0.41    0.24
  -3   1   5   -0.01    0.23
  -3   1   5    0.76    0.37
   2  -1  -5    6.28    0.82
   2  -1  -5    5.87    0.67
   2  -1  -5    6.35    0.62
  -2  -1   5    7.33    0.71
   2   1  -5    6.45    0.80
  -2   1   5    6.70    0.73
  -2   1   5    7.48    0.71
   1  -1  -5   42.29    1.45
   1  -1  -5   40.83    1.66
   1  -1  -5   41.08    1.74
  -1   1   5   41.90    1.75
   1   1  -5   42.72    1.66
   1   1  -5   43.07    1.21
   1   1  -5   45.31    1.77
   0  -1  -5    7.85    0.82
   0  -1   5    9.06    0.83
   0  -1  -5    9.03    0.65
   0  -1  -5    9.36    0.88
   0   1  -5    7.70    0.42
   0   1   5    5.86    0.77
   0   1  -5    7.69    0.80
   0   1   5    8.86    0.62
  -1  -1  -5    3.75    0.64
   1  -1   5    3.47    0.67
  -1  -1  -5    3.84    0.58
  -1  -1  -5    3.53    0.54
   1  -1   5    3.46    0.40
   1   1   5    3.01    1.07
   1   1   5    3.19    0.50
  -1   1  -5    3.36    0.67
   2  -1   5    5.83    0.52
  -2  -1  -5    7.73    1.01
   2   1   5    7.98    1.01
  -2   1  -5    6.73    0.93
   3  -1   5    3.16    0.74
  -3  -1  -5    3.04    0.71
   3   1   5    3.20    0.61
  -3   1  -5    3.55    0.79
   3   1   5    2.45    0.59
   4  -1   5    1.54    0.55
  -4  -1  -5    2.37    0.72
   4  -1   5    2.87    0.57
   4   1   5    2.15    0.58
  -4   1  -5    2.05    0.63
   5  -1   5    1.02    0.57
  -5  -1  -5    1.83    0.44
   5   1   5    1.89    0.62
  -5   1  -5    1.18    0.54
  -6  -1  -5   18.24    1.13
   6  -1   5   16.33    1.53
  -6  -1  -5   14.83    1.51
  -6   1  -5   17.55    1.65
  -6   1  -5   15.33    1.19
   6   1   5   17.01    1.60
  -7  -1  -5   10.26    1.46
   7  -1   5    7.53    1.45
  -7  -1  -5    7.29    1.09
  -7   1  -5    8.74    0.98
   7   1   5    8.74    1.35
  -7   1  -5    8.07    1.41
  -8  -1  -5    0.99    0.54
  -8  -1  -5   -0.21    0.54
   8  -1   5    0.98    0.68
  -8  -1  -5   -0.64    0.62
   8   1   5   -0.80    0.53
  -8   1  -5    0.27    0.67
  -8   1  -5    0.07    0.40
  -8   1  -5    0.03    0.50
  -9  -1  -5    5.04    1.19
  -9  -1  -5    6.75    0.88
  -9  -1  -5    5.70    1.39
  -9   1  -5    6.36    0.92
  -9   1  -5    7.66    1.47
  -9   1  -5    5.90    1.40
 -10  -1  -5   -0.20    0.71
 -10  -1  -5    0.95    1.04
 -10   1  -5    1.15    0.97
 -10   1  -5    0.35    0.54
 -10   1  -5    0.56    0.72
  13  -2  -5    1.13    0.93
 -13  -2   5    0.34    0.50
  13   2  -5    0.63    0.58
  13   2  -5    0.95    0.95
 -13   2   5    0.90    0.66
  13   2  -5    1.48    0.81
  12  -2  -5    1.94    0.98
 -12  -2   5    2.25    0.74
  12   2  -5    2.18    0.72
 -12   2   5    2.57    0.76
  12   2  -5    4.11    1.03
  12   2  -5    3.97    1.02
 -11  -2   5    0.24    0.40
  11  -2  -5    0.60    0.57
  11  -2  -5    1.04    0.61
  11  -2  -5    0.66    0.49
  11   2  -5    0.01    0.54
  11   2  -5    0.86    0.54
  11   2  -5    0.59    0.40
 -11   2   5   -0.06    0.40
  10  -2  -5    2.48    0.70
  10  -2  -5    1.64    0.74
  10  -2  -5    1.25    0.69
  10  -2  -5    1.95    0.63
 -10  -2   5    0.64    0.44
  10   2  -5    3.59    0.90
  10   2  -5    0.00    0.56
  10   2  -5    1.17    0.65
  10   2  -5    2.97    0.62
 -10   2   5    2.54    0.73
   9  -2  -5   20.12    1.47
   9  -2  -5   22.66    1.74
   9  -2  -5   22.23    1.83
  -9  -2   5   20.97    1.40
   9  -2  -5   21.72    1.72
   9   2  -5   20.83    1.35
  -9   2   5   21.24    1.51
   9   2  -5   22.36    1.75
   9   2  -5   20.14    1.60
   8  -2  -5    7.84    1.23
  -8  -2   5    8.46    0.91
   8  -2  -5    8.80    1.15
   8  -2  -5    6.13    1.19
   8  -2  -5    9.14    1.29
   8   2  -5    7.33    0.81
   8   2  -5    7.36    1.10
  -8   2   5    8.45    1.10
   8   2  -5    6.39    1.00
   8   2  -5    9.27    1.07
   7  -2  -5    0.09    0.37
   7  -2  -5    1.69    0.49
   7  -2  -5    0.53    0.41
   7  -2  -5    0.01    0.39
   7   2  -5    1.00    0.42
   7   2  -5    0.27    0.35
  -7   2   5    0.84    0.41
   7   2  -5    0.40    0.33
   7   2  -5    0.38    0.42
  -6  -2   5    1.10    0.56
   6  -2  -5    1.51    0.58
   6  -2  -5    2.19    0.57
   6  -2  -5    1.91    0.54
   6   2  -5    2.09    0.50
   6   2  -5    1.26    0.42
   6   2  -5    2.11    0.57
   6   2  -5    2.61    0.63
  -6   2   5    1.55    0.50
  -5  -2   5    0.58    0.35
   5  -2  -5    0.92    0.39
   5  -2  -5    0.69    0.36
   5  -2  -5    0.08    0.32
   5   2  -5    0.28    0.31
  -5   2   5    0.60    0.41
   5   2  -5    0.08    0.27
   5   2  -5    0.44    0.40
  -5   2   5    0.58    0.36
   5   2  -5    1.10    0.44
   4  -2  -5   35.53    1.61
  -4  -2   5   32.23    1.47
   4  -2  -5   34.13    1.69
   4   2  -5   35.30    1.53
  -4   2   5   36.39    1.67
   4   2  -5   32.34    1.56
  -4   2   5   35.27    1.62
   3  -2  -5   15.37    1.02
  -3  -2   5   13.61    0.92
   3  -2  -5   13.78    1.05
  -3   2   5   15.09    1.08
   3   2  -5   14.55    0.99
  -3   2   5   15.09    1.02
   2  -2  -5   20.18    1.09
  -2  -2   5   19.54    1.08
   2  -2  -5   19.03    1.19
   2  -2  -5   19.30    1.08
  -2   2   5   19.50    1.16
   2   2  -5   19.99    1.11
   2   2  -5   18.20    1.08
   1  -2  -5  339.65    7.11
   1  -2  -5  325.39    7.21
  -1  -2   5  326.64    7.07
   1  -2  -5  325.69    6.87
  -1   2   5  304.50    8.14
  -1   2   5  327.22    7.21
  -1   2   5  324.88    6.97
   1   2  -5  311.79    7.06
   0  -2   5    4.93    0.72
   0  -2  -5    7.07    0.66
   0  -2  -5    6.61    0.65
   0  -2  -5    6.20    0.85
   0   2   5    6.28    0.62
   0   2   5    6.08    0.80
   0   2  -5    6.56    0.76
  -1  -2  -5   28.17    1.32
  -1  -2  -5   30.95    1.56
  -1  -2  -5   27.07    1.22
   1  -2   5   28.21    1.48
  -1   2  -5   29.63    1.52
   1   2   5   26.00    1.49
   1   2   5   29.00    1.54
  -2  -2  -5   17.84    0.97
  -2  -2  -5   17.11    1.24
  -2  -2  -5   19.40    1.16
   2  -2   5   18.72    0.83
   2  -2   5   17.00    1.22
   2   2   5   17.19    1.98
   2   2   5   17.95    1.08
   3  -2   5    1.28    0.36
  -3  -2  -5    1.73    0.55
   3  -2   5    1.59    0.51
  -3   2  -5    1.15    0.55
   3   2   5    1.58    0.52
  -4  -2  -5    7.14    1.09
   4  -2   5    6.63    0.97
   4  -2   5    6.77    0.70
   4   2   5    7.65    1.30
  -4   2  -5    7.27    1.02
   5  -2   5    0.67    0.46
  -5  -2  -5    1.09    0.37
  -5   2  -5    0.52    0.40
  -5   2  -5    0.77    0.49
   5   2   5    1.19    0.54
  -6  -2  -5    1.58    0.70
  -6  -2  -5    1.55    0.43
   6  -2   5    0.54    0.50
  -6   2  -5    1.66    0.76
   6   2   5    1.25    0.56
  -6   2  -5    0.50    0.42
  -7  -2  -5    6.22    0.68
   7  -2   5    8.06    1.35
  -7  -2  -5    6.28    1.22
   7   2   5    5.03    1.07
  -7   2  -5    3.70    0.76
  -7   2  -5    5.52    1.13
  -8  -2  -5    3.26    0.54
  -8  -2  -5    3.64    1.01
  -8  -2  -5    4.49    1.12
  -8   2  -5    2.08    0.92
  -8   2  -5    1.21    0.79
   8   2   5    5.47    1.22
  -8   2  -5    3.46    0.76
  -9  -2  -5    0.28    0.66
  -9  -2  -5    0.22    0.68
   9   2   5    0.04    0.82
  -9   2  -5    0.24    0.51
  -9   2  -5    0.80    0.50
  -9   2  -5    1.25    0.77
 -10  -2  -5    0.56    0.99
 -10  -2  -5    0.40    0.74
 -10   2  -5    0.74    0.71
 -10   2  -5   -0.62    0.44
 -10   2  -5    0.32    1.35
  13  -3  -5   -0.36    0.66
  13   3  -5    2.10    0.95
 -13   3   5    0.34    0.55
  13   3  -5   -1.00    0.62
  12  -3  -5    8.10    1.61
  12   3  -5    6.91    0.93
 -12   3   5    9.15    1.29
  12   3  -5    8.34    1.30
  12   3  -5    7.01    1.37
  11  -3  -5   13.06    1.95
 -11  -3   5   11.61    1.13
  11  -3  -5   10.77    1.69
  11  -3  -5   11.28    1.70
  11   3  -5   10.70    1.57
  11   3  -5   11.76    1.06
 -11   3   5   13.21    1.66
  11   3  -5    9.45    1.45
  10  -3  -5    1.21    0.64
 -10  -3   5    2.38    0.63
  10  -3  -5    2.41    0.69
  10  -3  -5    1.07    1.26
  10  -3  -5    1.84    0.79
  10   3  -5    2.31    0.79
  10   3  -5    2.57    0.75
 -10   3   5    2.67    0.67
  10   3  -5    2.31    0.57
  10   3  -5    3.52    0.86
   9  -3  -5   31.70    2.18
   9  -3  -5   29.47    2.03
   9  -3  -5   30.82    2.07
   9  -3  -5   27.95    1.74
  -9  -3   5   28.57    1.60
   9   3  -5   31.70    1.98
   9   3  -5   32.90    2.08
   9   3  -5   31.11    1.60
  -9   3   5   29.75    1.84
   9   3  -5   32.35    1.97
   8  -3  -5   27.69    1.87
   8  -3  -5   28.04    1.70
   8  -3  -5   28.55    1.88
   8  -3  -5   26.31    1.89
  -8  -3   5   30.33    1.58
   8   3  -5   30.26    1.86
   8   3  -5   26.77    1.46
  -8   3   5   28.57    2.11
   8   3  -5   26.73    1.73
   8   3  -5   25.95    1.68
  -7  -3   5    0.59    0.34
   7  -3  -5   -0.10    0.36
   7  -3  -5    0.24    0.37
   7  -3  -5    0.44    0.44
   7   3  -5    0.37    0.35
   7   3  -5    0.47    0.36
   7   3  -5    0.39    0.31
  -7   3   5    0.10    0.34
   7   3  -5    0.76    0.43
   6  -3  -5    6.35    0.89
   6  -3  -5    6.51    0.93
   6  -3  -5    7.13    1.13
   6  -3  -5    6.08    0.93
   6   3  -5    8.64    0.83
   6   3  -5    6.55    0.89
  -6   3   5    7.45    1.00
   6   3  -5    5.76    0.74
   6   3  -5    6.27    0.84
   5  -3  -5    0.31    0.33
   5  -3  -5    0.24    0.48
   5  -3  -5    0.33    0.36
   5   3  -5    0.30    0.27
   5   3  -5    0.13    0.25
   5   3  -5   -0.10    0.25
  -5   3   5   -0.01    0.28
  -5   3   5   -0.02    0.29
   5   3  -5    0.46    0.37
  -4  -3   5    3.03    0.56
   4  -3  -5    1.85    0.58
   4  -3  -5    1.74    0.49
   4  -3  -5    2.50    0.58
   4   3  -5    3.14    0.59
  -4   3   5    2.11    0.52
   4   3  -5    1.91    0.50
  -4   3   5    2.58    0.57
   3  -3  -5   41.52    1.82
   3  -3  -5   44.59    1.89
  -3  -3   5   43.11    1.62
   3  -3  -5   45.15    1.78
   3   3  -5   40.81    1.69
   3   3  -5   39.69    1.63
  -3   3   5   42.77    1.81
  -3   3   5   38.90    1.70
  -2  -3   5    3.84    0.56
   2  -3  -5    4.00    0.58
   2  -3  -5    4.53    0.69
   2  -3  -5    3.41    0.60
   2   3  -5    3.60    0.58
  -2   3   5    3.91    0.59
  -2   3   5    4.06    0.65
   1  -3  -5  387.96    8.15
   1  -3  -5  387.34    8.33
  -1  -3   5  375.97    8.09
   1  -3  -5  387.45    8.03
  -1   3   5  390.17    8.10
  -1   3   5  392.87    8.37
  -1   3   5  380.96    8.10
   1   3  -5  369.74    8.10
   0  -3  -5  179.30    4.30
   0  -3   5  176.80    4.52
   0  -3  -5  189.04    4.53
   0  -3  -5  188.99    4.70
   0   3   5  182.01    4.32
   0   3   5  188.37    4.72
   0   3  -5  173.53    4.51
   0   3   5  186.13    4.48
   1  -3   5    0.09    0.27
  -1  -3  -5    0.20    0.26
  -1  -3  -5    0.05    0.32
  -1  -3  -5   -0.06    0.30
   1   3   5    0.02    0.27
   1   3   5    0.15    0.27
  -1   3  -5    0.07    0.33
  -2  -3  -5    2.62    0.62
  -2  -3  -5    2.41    0.55
  -2  -3  -5    3.08    0.48
   2  -3   5    4.07    0.38
   2  -3   5    3.14    0.64
   2   3   5    2.86    0.56
  -2   3  -5    4.98    0.88
   2   3   5    4.64    0.81
  -3  -3  -5   23.46    1.47
   3  -3   5   19.97    1.40
  -3  -3  -5   22.83    1.05
   3  -3   5   22.16    1.05
  -3   3  -5   22.52    1.50
   3   3   5   21.74    1.48
  -4  -3  -5   13.16    1.23
   4  -3   5   11.17    1.14
  -4  -3  -5   12.00    0.76
  -4   3  -5   10.36    1.14
   4   3   5    9.89    1.08
  -5  -3  -5   -0.30    0.20
   5  -3   5    0.93    0.54
  -5  -3  -5    0.27    0.47
  -5  -3  -5    0.44    0.26
  -5   3  -5   -0.24    0.26
   5   3   5    0.07    0.35
  -5   3  -5   -0.17    0.36
  -6  -3  -5   -0.05    0.46
  -6  -3  -5    0.59    0.30
  -6  -3  -5   -0.02    0.22
  -6   3  -5    0.40    0.47
   6   3   5   -0.65    0.39
  -6   3  -5    0.53    0.46
   7  -3   5    0.11    0.47
  -7  -3  -5    0.47    0.55
  -7   3  -5    0.75    0.59
  -7   3  -5   -0.17    0.34
   7   3   5    0.61    0.48
  -8  -3  -5    0.33    1.24
  -8  -3  -5    1.60    0.77
  -8   3  -5    2.64    0.99
  -8   3  -5    1.73    0.90
  -8   3  -5    1.45    0.56
   8   3   5    3.31    0.93
  -9  -3  -5   -0.33    0.67
  -9  -3  -5    0.88    0.68
  -9   3  -5    0.59    0.53
   9   3   5   -0.76    0.72
  -9   3  -5    1.18    0.65
  -9   3  -5   -0.50    0.58
 -10  -3  -5   -1.62    0.68
 -10  -3  -5   -1.05    0.81
 -10   3  -5   -0.27    0.63
 -10   3  -5    1.71    0.88
 -10   3  -5   -1.45    0.44
  12  -4  -5    1.09    0.72
 -12   4   5   -0.49    0.34
  12   4  -5   -1.49    0.55
  11  -4  -5    1.79    0.79
  11   4  -5    2.05    0.80
  11   4  -5    2.16    0.73
  11   4  -5    2.91    0.62
 -11   4   5    3.25    0.76
  10  -4  -5    0.63    0.59
  10  -4  -5    0.39    0.44
  10  -4  -5    2.20    0.80
  10  -4  -5    2.10    0.71
 -10   4   5    0.52    0.54
  10   4  -5   -0.19    0.42
  10   4  -5    1.57    0.42
  10   4  -5    1.19    0.60
  10   4  -5   -0.01    0.42
   9  -4  -5   18.67    1.73
   9  -4  -5   15.11    1.50
   9  -4  -5   19.66    1.48
   9  -4  -5   18.81    1.65
   9   4  -5   15.96    1.13
  -9   4   5   19.33    1.55
   9   4  -5   17.16    1.51
   9   4  -5   16.25    1.44
   8  -4  -5   25.54    1.77
   8  -4  -5   23.35    1.60
   8  -4  -5   26.49    1.94
   8  -4  -5   26.44    1.85
   8   4  -5   27.61    1.70
  -8   4   5   25.79    1.71
   8   4  -5   23.97    1.58
   8   4  -5   24.54    1.67
   8   4  -5   25.55    1.40
   7  -4  -5   -0.24    0.31
   7  -4  -5   -0.31    0.31
   7  -4  -5    0.00    0.26
   7  -4  -5    0.55    0.41
   7   4  -5    0.04    0.31
   7   4  -5   -0.08    0.21
  -7   4   5    0.11    0.36
   7   4  -5    0.15    0.27
   7   4  -5   -0.19    0.25
   6  -4  -5    1.33    0.45
   6  -4  -5    1.34    0.48
   6  -4  -5    2.39    0.60
   6   4  -5    1.44    0.49
   6   4  -5    0.67    0.40
   6   4  -5    2.19    0.49
   6   4  -5    1.96    0.50
  -6   4   5    1.55    0.54
   5  -4  -5    6.73    1.01
   5  -4  -5    6.42    0.92
   5  -4  -5    5.50    0.81
   5  -4  -5    7.25    0.79
   5   4  -5    6.02    0.68
  -5   4   5    7.61    0.85
  -5   4   5    6.20    0.87
   5   4  -5    6.10    0.81
   5   4  -5    6.10    0.91
   5   4  -5    7.76    0.80
  -4  -4   5    4.19    0.59
   4  -4  -5    3.28    0.57
   4  -4  -5    4.19    0.69
  -4   4   5    2.88    0.58
   4   4  -5    3.71    0.64
  -4   4   5    5.14    0.82
   4   4  -5    2.81    0.53
   3  -4  -5    0.00    0.22
  -3  -4   5    0.45    0.27
   3  -4  -5   -0.10    0.28
   3  -4  -5   -0.22    0.25
   3   4  -5   -0.02    0.21
  -3   4   5    0.00    0.29
  -3   4   5    0.48    0.33
   3   4  -5    0.27    0.29
  -2  -4   5    5.23    0.59
   2  -4  -5    3.80    0.64
   2  -4  -5    5.09    0.76
   2  -4  -5    4.32    0.59
   2   4  -5    4.87    0.69
  -2   4   5    4.35    0.60
  -2   4   5    5.21    0.73
   2   4  -5    5.80    0.50
   1  -4  -5   11.21    0.92
  -1  -4   5    9.81    0.81
   1  -4  -5   10.42    0.81
   1   4  -5   11.14    0.88
  -1   4   5   10.74    0.83
  -1   4   5   12.88    1.02
  -1   4   5   10.30    0.86
   0  -4  -5    1.03    0.42
   0  -4  -5    2.10    0.49
   0  -4  -5    2.87    0.63
   0  -4   5    1.89    0.48
   0   4   5    1.98    0.43
   0   4  -5    1.31    0.44
   0   4   5    1.71    0.52
   0   4   5    1.40    0.46
  -1  -4  -5    2.33    0.42
  -1  -4  -5    1.88    0.52
   1  -4   5    1.86    0.52
  -1  -4  -5    1.12    0.44
   1   4   5    2.88    0.60
  -1   4  -5    1.17    0.43
   1   4   5    1.97    0.57
  -2  -4  -5  105.88    3.31
  -2  -4  -5  107.40    3.98
   2  -4   5  100.33    3.28
  -2  -4  -5  100.96    2.68
   2   4   5  107.19    3.42
  -2   4  -5  101.95    3.30
   3  -4   5    1.07    0.47
  -3  -4  -5    0.76    0.42
  -3  -4  -5    2.25    0.40
  -3  -4  -5    1.04    0.49
   3   4   5    1.80    0.58
  -3   4  -5    1.16    0.48
  -4  -4  -5    4.57    0.90
   4  -4   5    3.79    0.78
  -4  -4  -5    4.21    0.47
   4   4   5    3.46    0.81
  -4   4  -5    5.83    1.00
  -4   4  -5    4.98    0.93
   5  -4   5    5.26    1.01
  -5  -4  -5    3.45    0.82
  -5   4  -5    2.57    0.64
  -5   4  -5    2.92    0.84
  -6  -4  -5    3.53    0.87
   6  -4   5    4.32    0.98
   6   4   5    5.70    1.06
  -6   4  -5    4.01    0.89
  -6   4  -5    5.09    1.11
  -7  -4  -5    2.94    0.94
  -7   4  -5    2.05    0.61
  -7   4  -5    2.29    0.83
   7   4   5    2.21    0.76
  -8  -4  -5    1.06    0.68
  -8  -4  -5    0.12    0.57
  -8   4  -5   -0.21    0.58
  -8   4  -5    0.85    0.76
  -8   4  -5    0.12    0.39
   8   4   5    0.51    0.66
  -9  -4  -5    1.41    0.93
  -9   4  -5    0.98    0.85
   9   4   5    2.16    1.09
  -9   4  -5    1.65    0.82
  -9   4  -5    1.18    0.69
  12  -5  -5    4.77    1.26
  12   5  -5    2.84    0.65
 -12   5   5    4.50    1.09
  12   5  -5    4.05    1.02
  11  -5  -5   -0.16    0.95
  11   5  -5    1.06    0.56
  11   5  -5    0.44    0.55
 -11   5   5    0.15    0.43
  11   5  -5    0.68    0.39
  10  -5  -5    2.06    0.83
  10  -5  -5    1.20    0.62
  10  -5  -5    1.95    0.84
  10   5  -5    2.51    0.75
  10   5  -5    2.49    0.76
  10   5  -5    2.80    0.59
  10   5  -5    0.83    0.59
 -10   5   5    1.16    0.63
   9  -5  -5    4.38    0.97
   9  -5  -5    4.48    1.14
   9  -5  -5    5.78    1.03
   9  -5  -5    2.74    0.80
   9   5  -5    2.62    0.70
   9   5  -5    2.98    0.61
   9   5  -5    2.52    0.70
  -9   5   5    3.53    0.86
   9   5  -5    2.49    0.74
   8  -5  -5    4.16    0.87
   8  -5  -5    6.85    1.18
   8  -5  -5    4.68    0.78
   8  -5  -5    4.52    0.96
   8   5  -5    4.89    0.73
   8   5  -5    4.81    0.85
  -8   5   5    5.79    1.05
   8   5  -5    5.67    1.01
   8   5  -5    5.54    0.89
   7  -5  -5    1.36    0.53
   7  -5  -5    0.20    0.34
   7  -5  -5    1.72    0.65
   7  -5  -5    1.01    0.48
  -7   5   5    1.42    0.53
   7   5  -5    0.69    0.40
   7   5  -5    0.72    0.38
   7   5  -5    1.01    0.40
   7   5  -5    1.24    0.51
   6  -5  -5   12.24    1.13
   6  -5  -5   12.75    1.21
   6  -5  -5   12.08    1.13
   6  -5  -5   11.60    1.07
  -6   5   5   13.28    1.17
   6   5  -5   12.14    0.96
   6   5  -5   12.84    1.05
   6   5  -5   12.96    0.95
   6   5  -5   12.24    0.96
   5  -5  -5   25.88    1.50
   5  -5  -5   26.23    1.60
   5  -5  -5   25.45    1.46
   5  -5  -5   23.35    1.45
  -5   5   5   24.43    1.48
   5   5  -5   23.57    1.23
  -5   5   5   25.71    1.54
   5   5  -5   23.91    1.56
   5   5  -5   23.75    1.25
   5   5  -5   22.97    1.30
   4  -5  -5    8.43    0.85
   4  -5  -5    6.58    0.90
   4  -5  -5   10.07    0.85
   4  -5  -5    8.72    0.87
   4  -5  -5    6.83    1.06
  -4  -5   5    8.74    0.68
   4   5  -5    7.57    0.79
   4   5  -5    5.65    1.13
  -4   5   5    8.69    0.99
  -4   5   5    6.85    0.88
   4   5  -5    6.48    0.70
   3  -5  -5    0.96    0.45
   3  -5  -5    2.36    0.53
  -3  -5   5    1.77    0.38
   3  -5  -5    2.41    0.56
   3   5  -5    1.79    0.45
  -3   5   5    1.85    0.49
  -3   5   5    2.47    0.56
   3   5  -5    3.15    0.58
  -2  -5   5   36.53    1.43
   2  -5  -5   37.43    1.72
   2  -5  -5   36.50    1.66
  -2   5   5   36.56    1.70
  -2   5   5   38.37    1.64
   2   5  -5   34.99    1.31
   2   5  -5   35.97    1.73
  -1  -5   5   15.83    0.97
   1  -5  -5   17.43    1.22
   1  -5  -5   16.80    1.02
   1  -5  -5   17.94    1.17
  -1   5   5   18.18    1.18
  -1   5   5   15.30    1.01
   1   5  -5   18.09    0.69
   0  -5  -5    0.40    0.36
   0  -5   5    0.49    0.30
   0  -5  -5    0.30    0.32
   0   5  -5    1.07    0.40
   0   5   5    0.38    0.27
   0   5   5    0.49    0.36
  -1  -5  -5    6.59    0.60
  -1  -5  -5    6.86    0.95
   1  -5   5    8.25    0.80
  -1  -5  -5    7.40    0.82
   1   5   5    7.88    0.85
   1   5   5    7.74    0.66
  -1   5  -5    7.66    0.82
  -2  -5  -5    0.27    0.24
   2  -5   5    0.17    0.16
   2  -5   5    0.13    0.27
  -2  -5  -5    0.30    0.28
  -2  -5  -5    0.57    0.38
   2   5   5   -0.05    0.28
   3  -5   5    2.67    0.66
  -3  -5  -5    3.09    0.80
  -3  -5  -5    3.05    0.66
  -3  -5  -5    3.14    0.44
  -3   5  -5    2.48    0.63
   3   5   5    2.88    0.63
  -4  -5  -5   26.73    1.68
   4  -5   5   21.71    1.58
   4   5   5   29.47    2.70
  -4   5  -5   21.20    1.59
  -4   5  -5   22.69    1.53
  -5  -5  -5   10.02    1.37
  -5   5  -5    8.02    1.30
   5   5   5    9.38    1.30
  -5   5  -5    9.94    1.10
  -6  -5  -5    4.00    0.96
   6  -5   5    2.42    0.71
  -6   5  -5    3.64    0.92
  -6   5  -5    1.96    0.63
   6   5   5    2.68    0.77
  -7  -5  -5    3.62    0.93
  -7   5  -5    5.30    1.17
  -7   5  -5    3.26    0.85
   7   5   5    2.60    0.92
  -7   5  -5    4.13    1.05
  -8  -5  -5    3.98    1.01
  -8  -5  -5    5.79    1.45
   8   5   5    4.07    1.07
  -8   5  -5    7.05    1.39
  -8   5  -5    4.98    0.97
  -9  -5  -5    1.94    0.83
  -9  -5  -5    0.68    0.91
  -9   5  -5   -0.85    0.52
  -9   5  -5   -0.50    0.73
  -9   5  -5    0.56    0.55
   9   5   5    0.88    0.93
  12  -6  -5    0.81    0.66
 -12   6   5    2.03    0.64
  12   6  -5    0.31    0.57
  12   6  -5    2.06    0.79
  12   6  -5    0.79    0.38
  11  -6  -5    0.56    0.65
 -11   6   5   -0.27    0.48
  11   6  -5    0.96    0.45
  11   6  -5    0.79    0.48
  11   6  -5   -0.09    0.46
  10  -6  -5    4.33    1.03
  10  -6  -5    6.54    1.30
  10   6  -5    5.59    1.08
  10   6  -5    5.99    1.05
  10   6  -5    5.77    0.78
 -10   6   5    4.79    1.10
   9  -6  -5    4.50    0.96
   9  -6  -5    3.37    0.92
   9  -6  -5    4.56    0.97
   9  -6  -5    1.43    1.01
   9   6  -5    4.01    0.84
  -9   6   5    5.88    1.20
   9   6  -5    5.45    0.77
   9   6  -5    4.26    1.03
   9   6  -5    3.64    0.84
   8  -6  -5   47.56    2.62
   8  -6  -5   43.18    2.39
   8  -6  -5   46.63    3.02
   8  -6  -5   46.44    2.33
   8   6  -5   43.30    2.89
   8   6  -5   44.93    2.16
  -8   6   5   41.26    2.29
   8   6  -5   41.41    2.16
   8   6  -5   45.79    1.87
   7  -6  -5    7.69    1.15
   7  -6  -5    5.52    0.98
   7  -6  -5    4.96    0.92
   7   6  -5    5.05    0.71
   7   6  -5    5.43    0.89
   7   6  -5    4.11    0.72
  -7   6   5    5.02    0.84
   7   6  -5    5.56    0.82
   6  -6  -5    1.46    0.52
   6  -6  -5    0.75    0.53
   6  -6  -5    1.28    0.50
   6  -6  -5    2.25    0.65
   6   6  -5    0.92    0.38
   6   6  -5    2.00    0.46
   6   6  -5    2.15    0.55
  -6   6   5    2.05    0.59
   5  -6  -5   22.19    1.43
   5  -6  -5   24.55    1.49
   5  -6  -5   22.19    1.42
   5  -6  -5   23.86    1.55
   5  -6  -5   20.44    1.60
   5   6  -5   23.64    1.29
   5   6  -5   23.96    1.26
   5   6  -5   23.73    1.23
  -5   6   5   24.55    1.55
   5   6  -5   24.01    1.29
  -5   6   5   26.50    1.58
   4  -6  -5   16.09    1.14
   4  -6  -5   19.38    1.26
   4  -6  -5   15.38    1.19
   4  -6  -5   19.14    1.23
   4  -6  -5   15.20    1.30
   4   6  -5   15.70    0.99
  -4   6   5   16.95    1.23
   4   6  -5   15.55    1.06
  -4   6   5   17.00    1.23
   3  -6  -5    5.99    0.81
  -3  -6   5    4.45    0.48
   3  -6  -5    4.93    0.78
   3  -6  -5    5.95    0.96
  -3   6   5    4.78    0.82
  -3   6   5    5.52    0.79
   3   6  -5    5.83    0.79
  -2  -6   5  106.45    2.79
   2  -6  -5  112.68    3.36
   2  -6  -5  108.22    3.57
   2  -6  -5  114.52    3.26
  -2   6   5  113.11    4.47
   2   6  -5  109.39    2.85
   2   6  -5  108.78    2.98
  -2   6   5  115.03    3.38
   1  -6  -5    0.28    0.31
  -1  -6   5    0.07    0.23
   1  -6  -5    0.38    0.38
   1  -6  -5    0.36    0.27
   1   6  -5    0.16    0.17
  -1   6   5    0.21    0.32
  -1   6   5    0.03    0.25
   1   6  -5   -0.06    0.25
   0  -6  -5    6.93    0.66
   0  -6   5    5.82    0.63
   0  -6  -5    7.00    0.77
   0  -6  -5    6.45    0.91
   0   6  -5    6.60    0.72
   0   6   5    6.93    0.80
   0   6   5    6.84    0.68
  -1  -6  -5    3.25    0.68
  -1  -6  -5    2.67    0.56
  -1  -6  -5    3.72    0.51
   1  -6   5    3.55    0.66
  -1   6  -5    5.33    0.80
   1   6   5    3.38    0.66
   1   6   5    4.32    0.58
  -2  -6  -5    0.18    0.29
  -2  -6  -5    0.53    0.66
  -2  -6  -5   -0.26    0.16
   2  -6   5    0.06    0.29
   2  -6   5   -0.06    0.16
   2   6   5    0.05    0.29
  -2   6  -5   -0.18    0.25
  -3  -6  -5    2.28    0.72
  -3  -6  -5    2.03    0.56
   3  -6   5    3.14    0.50
  -3  -6  -5    2.44    0.37
   3  -6   5    3.00    0.66
  -3   6  -5    2.57    0.68
   3   6   5    2.53    0.63
   4  -6   5    6.92    1.03
  -4  -6  -5    6.23    0.95
  -4   6  -5    6.79    1.03
   4   6   5    8.62    1.18
  -4   6  -5    7.40    1.06
  -5  -6  -5    1.01    0.54
   5  -6   5    1.42    0.62
  -5   6  -5    0.80    0.51
  -5   6  -5    0.04    0.37
   5   6   5    0.82    0.57
  -6  -6  -5   25.24    1.86
  -6   6  -5   29.21    2.09
  -6   6  -5   30.65    1.96
  -7  -6  -5    2.74    0.81
  -7   6  -5    0.87    0.66
  -7   6  -5    2.62    0.86
   7   6   5    2.98    0.82
  -7   6  -5    4.06    0.93
  -8  -6  -5    0.57    0.77
  -8  -6  -5   -0.54    0.64
  -8   6  -5    0.45    0.52
   8   6   5    1.57    0.76
  -8   6  -5    0.24    0.56
  -8   6  -5    0.85    0.68
  -9  -6  -5    2.46    0.97
  -9  -6  -5    2.76    1.03
  -9   6  -5    2.70    0.97
   9   6   5    0.89    0.89
  -9   6  -5    0.90    0.85
  -9   6  -5    1.74    0.65
  12  -7  -5    1.40    0.83
  12   7  -5    2.91    0.94
  12   7  -5    3.19    1.02
 -12   7   5    2.07    0.95
  11  -7  -5    2.52    1.08
  11   7  -5    1.40    0.60
  11   7  -5    0.69    0.59
 -11   7   5    1.21    0.77
  11   7  -5    1.86    0.51
  10  -7  -5   -0.66    0.38
  10   7  -5    1.25    0.54
  10   7  -5    0.78    0.50
 -10   7   5    0.29    0.47
  10   7  -5    1.33    0.36
   9  -7  -5    9.21    1.47
   9  -7  -5    8.21    1.34
   9   7  -5    9.68    1.28
   9   7  -5    7.70    1.11
   9   7  -5    7.76    1.17
  -9   7   5    7.90    1.38
   9   7  -5    8.41    0.85
   8  -7  -5    1.32    0.59
   8  -7  -5   -0.34    0.36
   8  -7  -5    1.04    0.59
   8  -7  -5    0.04    0.29
   8   7  -5   -0.07    0.30
   8   7  -5    0.38    0.36
   8   7  -5   -0.43    0.26
   8   7  -5   -0.06    0.32
  -8   7   5   -0.70    0.25
   7  -7  -5   15.71    2.09
   7  -7  -5   11.93    1.24
   7  -7  -5   13.94    1.38
   7  -7  -5   13.21    1.28
   7   7  -5   13.07    1.06
   7   7  -5   11.86    1.10
  -7   7   5   12.38    1.30
   7   7  -5   10.59    1.21
   7   7  -5   10.61    0.89
   6  -7  -5    0.86    0.37
   6  -7  -5    3.07    0.90
   6  -7  -5    2.23    0.65
   6  -7  -5    1.65    0.60
   6  -7  -5    1.42    0.54
   6   7  -5    0.94    0.39
   6   7  -5    1.13    0.41
   6   7  -5    2.27    0.55
   6   7  -5    1.50    0.45
  -6   7   5    1.40    0.52
   5  -7  -5    2.07    0.62
   5  -7  -5    1.90    0.60
   5  -7  -5    2.42    0.62
   5  -7  -5    2.56    0.67
   5  -7  -5    1.95    0.55
   5   7  -5    3.14    0.53
   5   7  -5    2.24    0.52
  -5   7   5    1.76    0.54
  -5   7   5    2.96    0.75
   5   7  -5    2.76    0.55
   5   7  -5    2.42    0.47
   4  -7  -5    0.14    0.30
   4  -7  -5    0.74    0.36
   4  -7  -5   -0.15    0.27
   4  -7  -5    0.17    0.44
   4  -7  -5    0.29    0.33
  -4   7   5    0.51    0.32
   4   7  -5    0.11    0.26
   3  -7  -5   34.03    1.95
   3  -7  -5   34.47    1.64
   3  -7  -5   34.64    1.67
   3  -7  -5   34.60    1.72
  -3  -7   5   31.44    1.15
   3   7  -5   33.51    1.37
  -3   7   5   34.72    1.72
  -3   7   5   32.25    1.68
   3   7  -5   31.98    1.52
   2  -7  -5   38.45    1.76
   2  -7  -5   36.60    1.67
  -2  -7   5   36.05    1.28
  -2   7   5   38.80    1.78
   2   7  -5   36.04    1.48
  -2   7   5   36.94    1.73
   2   7  -5   34.83    1.62
   1  -7  -5   -0.10    0.26
   1  -7  -5    0.55    0.40
  -1  -7   5    0.34    0.24
   1   7  -5    0.14    0.25
   1   7  -5   -0.09    0.16
  -1   7   5    0.29    0.32
  -1   7   5    0.38    0.30
   0  -7  -5    2.53    0.49
   0  -7   5    2.68    0.41
   0  -7   5    2.44    0.48
   0  -7  -5    2.53    0.55
   0   7   5    1.87    0.44
   0   7   5    1.38    0.47
   0   7  -5    2.46    0.51
  -1  -7  -5    1.71    0.53
  -1  -7  -5    1.60    0.48
   1  -7   5    1.50    0.46
  -1  -7  -5    3.25    0.60
  -1   7  -5    2.77    0.58
   1   7   5    3.56    0.67
   1   7   5    2.00    0.43
  -2  -7  -5   -0.36    0.21
  -2  -7  -5    0.40    0.44
   2  -7   5   -0.11    0.18
   2  -7   5   -0.28    0.24
  -2  -7  -5    0.19    0.20
  -2   7  -5   -0.08    0.26
   2   7   5   -0.10    0.28
  -3  -7  -5    4.62    0.84
   3  -7   5    3.92    0.59
  -3  -7  -5    3.86    0.90
   3  -7   5    3.22    0.70
   3   7   5    3.74    0.83
  -3   7  -5    4.53    0.86
  -3   7  -5    4.00    0.78
  -4  -7  -5   -0.54    0.32
   4  -7   5    0.18    0.37
  -4  -7  -5   -0.28    0.40
   4  -7   5   -0.30    0.24
   4   7   5    0.04    0.37
  -4   7  -5    0.21    0.35
  -4   7  -5   -0.38    0.24
   5  -7   5   16.47    1.50
  -5  -7  -5   18.44    1.47
  -5   7  -5   19.67    1.60
  -5   7  -5   18.02    1.59
   5   7   5   18.79    1.64
  -6  -7  -5    1.25    0.68
  -6   7  -5    1.14    0.62
  -6   7  -5    0.45    0.53
   6   7   5   -0.34    0.48
  -7  -7  -5    1.90    0.79
  -7   7  -5    1.34    0.72
  -7   7  -5    1.47    0.75
  -7   7  -5    2.42    1.29
   7   7   5    2.03    0.76
  -8  -7  -5    2.62    0.95
  -8  -7  -5    0.40    0.67
  -8   7  -5    2.41    0.83
  -8   7  -5    0.34    0.66
   8   7   5    2.82    0.80
  -8   7  -5    2.25    0.74
  -9  -7  -5    2.45    1.17
  -9  -7  -5    4.23    1.07
  -9   7  -5    2.43    0.98
  -9   7  -5    3.33    1.02
  -9   7  -5    1.67    0.73
   9   7   5    5.25    1.27
  12  -8  -5   -0.06    0.71
  12   8  -5    0.02    0.83
 -12   8   5    0.05    0.49
  12   8  -5    0.82    0.70
  11  -8  -5    1.09    0.77
  11   8  -5    0.94    0.64
  11   8  -5    0.72    0.61
 -11   8   5    0.83    0.61
  10  -8  -5    1.73    0.79
  10   8  -5    1.13    0.63
  10   8  -5    1.20    0.60
 -10   8   5    0.63    0.53
  10   8  -5    1.35    0.36
   9  -8  -5    0.47    0.59
  -9   8   5    0.76    0.50
   9   8  -5    0.49    0.37
   9   8  -5    0.66    0.47
   9   8  -5   -0.12    0.42
   8  -8  -5    1.37    0.67
   8  -8  -5    0.96    0.51
   8  -8  -5    0.64    0.58
   8  -8  -5    0.08    0.44
   8   8  -5    0.89    0.39
   8   8  -5    0.85    0.49
   8   8  -5    1.14    0.47
   8   8  -5    0.28    0.40
  -8   8   5    0.69    0.54
   7  -8  -5   51.20    2.54
   7  -8  -5   45.92    2.39
   7  -8  -5   46.94    2.81
   7  -8  -5   42.47    2.51
  -7   8   5   49.69    2.52
   7   8  -5   46.64    2.08
   7   8  -5   46.98    2.02
   7   8  -5   49.53    2.04
   7   8  -5   46.81    1.91
   6  -8  -5    7.61    1.07
   6  -8  -5    7.61    1.03
   6  -8  -5    8.18    1.22
   6  -8  -5    8.15    1.37
   6  -8  -5    5.44    0.97
   6   8  -5    7.07    0.76
   6   8  -5    9.52    0.82
   6   8  -5    5.90    0.80
  -6   8   5    8.42    1.23
   6   8  -5    7.31    0.75
   5  -8  -5   15.79    1.49
   5  -8  -5   16.67    1.35
   5  -8  -5   14.38    1.19
   5  -8  -5   15.08    1.24
   5  -8  -5   15.91    1.24
  -5   8   5   15.69    1.28
   5   8  -5   13.86    0.92
   5   8  -5   14.71    1.07
  -5   8   5   14.26    1.26
   5   8  -5   14.35    0.98
   5   8  -5   14.89    0.93
   4  -8  -5    1.76    0.50
   4  -8  -5    1.61    0.51
   4  -8  -5    1.31    0.44
   4  -8  -5    1.96    0.58
   4  -8  -5    1.00    0.55
  -4   8   5    1.57    0.56
   4   8  -5    0.99    0.34
  -4   8   5    1.32    0.48
   3  -8  -5   11.01    1.17
   3  -8  -5   12.05    1.05
   3  -8  -5   11.24    0.96
   3  -8  -5   11.99    1.03
   3   8  -5   12.19    0.80
  -3   8   5   11.10    0.99
  -3   8   5   11.06    1.03
   2  -8  -5   13.56    1.28
   2  -8  -5   16.38    1.14
   2  -8  -5   15.25    1.09
  -2  -8   5   15.58    0.86
   2   8  -5   14.81    0.97
  -2   8   5   16.11    1.16
  -2   8   5   16.51    1.17
   2   8  -5   15.28    0.90
   1  -8  -5   12.73    1.01
  -1  -8   5   12.35    0.73
   1  -8  -5   13.89    0.99
   1  -8  -5   14.39    1.29
  -1  -8   5   11.79    0.81
  -1   8   5   10.42    0.92
  -1   8   5   13.41    1.04
   1   8  -5   12.46    0.86
   1   8  -5   11.88    0.77
   0  -8  -5    8.42    1.17
   0  -8  -5    9.21    0.78
   0  -8   5    7.18    0.66
   0  -8   5    8.38    0.64
   0  -8  -5    8.11    0.90
   0   8  -5    7.87    0.59
   0   8  -5    8.91    0.81
   0   8   5    9.61    0.80
   0   8   5    7.89    0.85
  -1  -8  -5    0.05    0.22
  -1  -8  -5    0.32    0.43
   1  -8   5    0.05    0.21
  -1  -8  -5    0.12    0.33
   1  -8   5    0.11    0.27
   1   8   5    0.15    0.23
   1   8   5    0.16    0.32
  -1   8  -5    0.37    0.32
   2  -8   5    0.45    0.30
   2  -8   5    0.52    0.35
  -2  -8  -5    1.04    0.58
  -2  -8  -5    0.72    0.30
  -2  -8  -5    0.25    0.29
   2   8   5    0.29    0.35
  -2   8  -5    0.58    0.40
   2   8   5    0.19    0.22
  -3  -8  -5    3.42    0.68
  -3  -8  -5    3.11    0.86
   3  -8   5    3.60    0.72
   3  -8   5    4.49    0.64
  -3   8  -5    2.59    0.65
   3   8   5    2.67    0.65
  -3   8  -5    2.94    0.73
   4  -8   5    1.40    0.59
  -4  -8  -5    2.24    0.63
  -4  -8  -5    2.84    0.90
   4  -8   5    3.43    0.63
   4   8   5    3.54    0.73
  -4   8  -5    1.88    0.64
  -4   8  -5    3.38    0.80
  -5  -8  -5    7.67    1.11
   5  -8   5    7.28    0.97
  -5   8  -5    8.84    1.31
   5   8   5    7.75    1.20
  -5   8  -5    6.65    1.24
  -6  -8  -5    1.72    0.62
  -6   8  -5    2.73    1.44
  -6   8  -5    0.93    0.65
   6   8   5    2.33    0.70
  -6   8  -5    2.90    0.91
  -7   8  -5    9.34    1.49
  -7   8  -5    7.70    1.34
   7   8   5   11.53    2.06
  -8  -8  -5    0.17    0.69
  -8  -8  -5    2.45    0.81
  -8   8  -5    0.22    0.67
  -8   8  -5    1.40    0.69
  -8   8  -5    1.17    0.65
   8   8   5    2.53    0.82
  -9  -8  -5    1.19    0.87
  -9  -8  -5    0.87    0.80
  -9   8  -5    1.50    0.69
  -9   8  -5    0.67    0.79
  -9   8  -5    1.33    0.78
   9   8   5    0.78    1.07
  11  -9  -5    0.73    0.77
  11   9  -5    1.19    0.64
  10  -9  -5    1.32    0.70
  10   9  -5    1.34    0.64
  10   9  -5    0.79    0.48
  10   9  -5    0.47    0.46
   9  -9  -5    1.15    0.87
   9  -9  -5   -0.02    0.43
   9   9  -5    0.05    0.38
   9   9  -5    0.33    0.41
  -9   9   5   -0.25    0.43
   9   9  -5    0.77    0.36
   8  -9  -5   14.95    1.50
   8  -9  -5   15.63    1.58
   8  -9  -5   16.51    1.83
   8   9  -5   15.15    1.23
   8   9  -5   14.54    1.04
  -8   9   5   15.28    1.54
   8   9  -5   16.57    1.49
   8   9  -5   16.73    1.26
   7  -9  -5   11.82    1.29
   7  -9  -5   11.28    1.79
   7  -9  -5   14.51    1.36
   7  -9  -5   13.23    1.32
   7  -9  -5   13.49    1.42
   7   9  -5   13.01    1.02
   7   9  -5   13.36    1.01
   7   9  -5   13.27    1.09
  -7   9   5   13.92    1.38
   6  -9  -5    8.66    1.41
   6  -9  -5   11.19    1.15
   6  -9  -5   11.31    1.15
   6  -9  -5    9.92    1.85
   6  -9  -5   10.00    1.16
  -6   9   5   11.77    1.25
   6   9  -5   10.08    0.90
   6   9  -5   10.10    0.85
   6   9  -5   12.57    0.93
   6   9  -5   11.23    0.96
   5  -9  -5   23.83    1.62
   5  -9  -5   20.20    1.76
   5  -9  -5   24.47    1.54
   5  -9  -5   22.17    1.48
   5  -9  -5   24.04    1.58
   5   9  -5   21.24    1.09
  -5   9   5   22.16    1.57
   5   9  -5   21.72    1.17
   5   9  -5   23.19    1.12
   5   9  -5   22.54    1.35
   4  -9  -5   10.24    0.98
   4  -9  -5   11.66    1.10
   4  -9  -5   11.13    1.65
   4  -9  -5   11.03    1.05
   4  -9  -5   11.22    1.00
  -4   9   5   11.12    1.07
  -4   9   5   13.03    1.18
   4   9  -5   11.63    0.81
   4   9  -5   10.85    0.72
   3  -9  -5    9.13    0.92
   3  -9  -5    8.41    0.90
   3  -9  -5    8.32    0.85
   3  -9  -5    8.02    0.84
   3  -9  -5    6.78    1.06
  -3   9   5    9.41    0.99
  -3   9   5    8.57    0.91
   3   9  -5    8.66    0.68
   2  -9  -5   39.19    1.81
   2  -9  -5   40.35    2.22
   2  -9  -5   37.61    2.15
  -2   9   5   38.94    1.85
   2   9  -5   36.19    1.40
  -2   9   5   35.16    1.78
   2   9  -5   34.50    1.60
   1  -9  -5    4.20    0.66
  -1  -9   5    4.67    0.70
   1  -9  -5    4.70    0.84
  -1  -9   5    3.51    0.49
   1   9  -5    4.03    0.60
  -1   9   5    3.57    0.69
   1   9  -5    3.80    0.60
  -1   9   5    5.61    0.85
   0  -9  -5    1.17    0.59
   0  -9   5    1.29    0.40
   0  -9  -5    1.30    0.40
   0  -9   5    1.16    0.34
   0   9  -5    0.51    0.33
   0   9   5    0.86    0.43
   0   9   5    1.35    0.44
   0   9  -5    1.60    0.44
   1  -9   5    0.23    0.26
  -1  -9  -5   -0.06    0.37
  -1  -9  -5   -0.05    0.22
   1  -9   5   -0.02    0.25
  -1   9  -5   -0.08    0.27
   1   9   5    0.34    0.27
   1   9   5   -0.46    0.25
  -2  -9  -5    0.93    0.32
   2  -9   5    0.49    0.29
   2  -9   5    0.89    0.41
  -2  -9  -5    1.28    0.68
   2   9   5    0.91    0.45
  -2   9  -5    0.66    0.41
   2   9   5    0.64    0.30
  -2   9  -5    0.96    0.52
   3  -9   5   10.89    0.84
  -3  -9  -5    8.88    1.37
   3  -9   5    9.67    1.01
  -3   9  -5    9.19    1.06
   3   9   5    9.92    1.10
  -3   9  -5    7.47    1.05
  -4  -9  -5    4.55    0.92
   4  -9   5    6.07    0.83
  -4  -9  -5    4.60    1.20
  -4   9  -5    4.15    0.88
   4   9   5    7.06    1.08
  -4   9  -5    6.83    1.13
  -5  -9  -5   38.76    2.07
   5  -9   5   40.68    1.93
  -5   9  -5   39.22    2.66
  -5   9  -5   37.33    2.31
   5   9   5   41.46    2.30
  -6  -9  -5   15.75    1.43
   6  -9   5   17.30    1.35
   6   9   5   17.39    1.60
  -6   9  -5   17.82    1.79
  -6   9  -5   16.56    1.65
  -6   9  -5   16.08    1.65
   7  -9   5    3.54    0.83
  -7  -9  -5    2.86    0.84
  -7   9  -5    2.51    0.79
  -7   9  -5    1.52    0.77
  -7   9  -5    2.87    0.87
   7   9   5    2.53    0.79
  -8  -9  -5    3.54    1.01
   8  -9   5    3.16    0.90
   8   9   5    2.60    0.93
  -8   9  -5    2.06    0.81
  -8   9  -5    1.81    0.81
  -8   9  -5    4.82    1.20
  11 -10  -5    1.58    0.83
  11 -10  -5    2.69    1.04
  11  10  -5    2.26    0.81
  11  10  -5    4.05    0.90
 -11  10   5    2.55    1.03
  10 -10  -5    0.60    0.63
  10 -10  -5    0.37    0.73
  10  10  -5    0.43    0.46
  10  10  -5    0.35    0.52
 -10  10   5    0.53    0.51
   9 -10  -5    0.45    0.67
   9 -10  -5    0.41    0.61
   9  10  -5    1.02    0.48
   9  10  -5    0.80    0.36
   9  10  -5    0.26    0.43
  -9  10   5    0.66    0.53
   8 -10  -5   14.40    2.12
   8  10  -5   14.56    1.22
   8  10  -5   13.95    1.02
  -8  10   5   15.60    1.54
   8  10  -5   13.20    1.16
   7 -10  -5    7.58    1.33
   7 -10  -5    5.87    1.07
   7 -10  -5    6.42    1.54
   7  10  -5    7.38    0.80
   7  10  -5    5.59    0.77
   7  10  -5    6.64    0.89
  -7  10   5    6.72    1.21
   7  10  -5    8.29    0.87
   6 -10  -5    6.97    1.25
   6 -10  -5    6.75    1.06
   6 -10  -5    8.37    1.14
   6 -10  -5    6.11    1.04
   6  10  -5    6.64    0.69
  -6  10   5    5.72    0.98
   6  10  -5    5.67    0.82
   6  10  -5    7.34    0.72
   6  10  -5    7.06    0.75
   5 -10  -5    3.80    0.89
   5 -10  -5    5.85    0.93
   5 -10  -5    5.93    1.03
   5 -10  -5    5.85    1.05
   5 -10  -5    5.08    0.86
   5  10  -5    4.69    0.60
  -5  10   5    5.14    0.94
   5  10  -5    5.63    0.61
   5  10  -5    4.64    0.62
   4 -10  -5   14.96    1.17
   4 -10  -5   15.44    1.56
   4 -10  -5   17.09    1.23
   4 -10  -5   15.70    1.30
   4 -10  -5   17.70    1.32
  -4  10   5   16.10    1.36
  -4  10   5   17.17    1.32
   4  10  -5   17.10    0.86
   4  10  -5   17.03    0.91
   3 -10  -5   31.75    1.72
   3 -10  -5   31.60    1.75
   3 -10  -5   31.44    2.09
   3 -10  -5   32.35    1.65
   3 -10  -5   30.77    1.60
  -3  10   5   31.67    1.80
  -3  10   5   30.65    1.72
   3  10  -5   32.00    1.23
   2 -10  -5    0.15    0.27
   2 -10  -5   -0.22    0.24
   2 -10  -5    0.25    0.24
   2 -10  -5   -0.21    0.34
  -2  10   5   -0.06    0.30
  -2  10   5    0.00    0.26
   2  10  -5   -0.04    0.21
  -1 -10   5    1.07    0.44
   1 -10  -5    0.15    0.23
   1 -10  -5    0.25    0.43
   1 -10  -5    0.53    0.32
  -1  10   5    0.68    0.34
   1  10  -5   -0.08    0.24
  -1  10   5    0.48    0.34
   1  10  -5    0.15    0.29
   0 -10   5   21.21    1.03
   0 -10   5   20.89    1.19
   0 -10  -5   19.30    1.67
   0 -10  -5   21.67    1.23
   0  10  -5   19.96    1.16
   0  10  -5   20.18    1.13
   0  10   5   20.07    1.25
   0  10   5   21.56    1.39
   1 -10   5   -0.20    0.23
  -1 -10  -5    0.63    0.35
   1 -10   5   -0.04    0.23
  -1 -10  -5    0.16    0.45
  -1  10  -5    0.10    0.28
   1  10   5    0.31    0.30
   1  10   5    0.51    0.36
   2 -10   5   78.24    2.51
  -2 -10  -5   73.18    3.48
   2 -10   5   70.05    2.67
  -2 -10  -5   81.70    2.36
  -2  10  -5   72.91    2.77
   2  10   5   78.56    2.92
  -2  10  -5   78.84    3.22
   2  10   5   79.91    2.38
   3 -10   5   32.29    1.81
  -3 -10  -5   33.44    2.38
   3 -10   5   35.39    1.62
   3  10   5   34.09    1.93
  -3  10  -5   38.31    2.01
  -3  10  -5   34.16    2.12
  -4 -10  -5    1.65    0.88
   4 -10   5    0.43    0.39
  -4 -10  -5    1.94    0.54
  -4  10  -5    0.59    0.44
  -4  10  -5    1.06    0.61
   4  10   5    0.79    0.51
   5 -10   5    2.27    0.60
  -5  10  -5    1.30    0.64
  -5  10  -5    1.94    0.73
  -5  10  -5    1.02    0.53
   6 -10   5    0.22    0.42
   6  10   5    0.06    0.55
  -6  10  -5   -0.64    0.42
  -6  10  -5    0.40    0.52
  -6  10  -5    0.25    0.68
   7 -10   5    4.49    0.94
  -7 -10  -5    5.20    0.97
  -7 -10  -5    5.10    1.01
  -7  10  -5    5.51    1.21
  -7  10  -5    5.19    1.15
   8 -10   5    1.42    0.67
  -8 -10  -5    1.79    0.79
  -8 -10  -5    0.89    0.70
   8  10   5    2.10    0.88
  -8  10  -5    0.76    0.63
  -8  10  -5    1.29    0.75
  -8  10  -5    0.61    0.61
  11 -11  -5    5.35    1.43
  11 -11  -5    6.05    1.75
  11  11  -5    6.51    1.84
 -11  11   5    6.36    1.30
  10 -11  -5    0.91    0.81
  10 -11  -5    1.23    0.77
  10  11  -5    0.97    0.63
 -10  11   5    0.55    0.59
  10  11  -5    0.06    0.50
   9 -11  -5    0.00    0.51
   9 -11  -5    0.68    0.66
   9  11  -5   -0.39    0.34
   9  11  -5    0.32    0.43
   9  11  -5   -0.61    0.28
   8 -11  -5   -0.83    0.32
   8 -11  -5   -0.02    0.55
   8  11  -5   -0.13    0.33
   8  11  -5   -0.04    0.31
   8  11  -5   -0.13    0.35
  -8  11   5   -0.04    0.36
   7 -11  -5   12.45    2.05
   7 -11  -5    9.50    1.36
   7  11  -5    9.08    0.94
   7  11  -5   11.39    0.93
  -7  11   5   11.56    1.59
   7  11  -5    9.65    0.92
   6 -11  -5   28.01    2.29
   6 -11  -5   25.61    1.83
   6 -11  -5   24.93    1.90
   6  11  -5   26.82    1.26
   6  11  -5   25.12    1.27
   6  11  -5   25.73    1.24
   6  11  -5   27.79    1.55
  -6  11   5   24.89    1.84
   5 -11  -5   72.75    3.00
   5 -11  -5   71.63    2.85
   5 -11  -5   72.44    3.09
   5 -11  -5   71.34    3.55
   5  11  -5   68.02    2.04
   5  11  -5   69.64    2.04
  -5  11   5   74.23    3.14
   5  11  -5   69.55    2.12
   4 -11  -5   27.76    2.28
   4 -11  -5   24.73    1.52
   4 -11  -5   20.91    1.42
   4 -11  -5   25.78    1.60
   4 -11  -5   25.17    2.03
  -4  11   5   24.86    1.71
   4  11  -5   24.42    0.99
  -4  11   5   24.06    1.59
   3 -11  -5    4.38    0.76
   3 -11  -5    4.11    1.03
   3 -11  -5    2.35    0.62
  -3  11   5    3.21    0.73
  -3  11   5    3.40    0.80
   2 -11  -5   18.83    1.34
   2 -11  -5   21.44    1.28
   2 -11  -5   20.00    1.24
  -2 -11   5   18.39    1.34
   2 -11  -5   20.80    1.78
   2  11  -5   19.51    0.95
  -2  11   5   20.93    1.46
  -2  11   5   20.09    1.37
   1 -11  -5   49.43    2.76
   1 -11  -5   53.73    2.25
  -1  11   5   55.07    2.29
   1  11  -5   52.47    1.81
  -1  11   5   52.61    2.26
   0 -11  -5    6.87    1.35
   0 -11  -5    8.26    0.84
   0 -11   5    7.17    0.57
   0 -11   5    8.09    1.00
   0 -11  -5    8.27    0.82
   0  11  -5    7.52    0.75
   0  11   5    7.25    0.97
   0  11   5    7.50    0.96
   1 -11   5    2.15    0.56
   1 -11   5    2.60    0.50
  -1 -11  -5    1.77    0.51
  -1 -11  -5    2.20    0.51
  -1 -11  -5    1.96    0.78
   1  11   5    1.73    0.49
  -1  11  -5    1.82    0.61
  -1  11  -5    2.25    0.53
   1  11   5    2.16    0.58
   2 -11   5    1.69    0.50
   2 -11   5    1.78    0.50
  -2 -11  -5    2.17    0.44
  -2 -11  -5    1.14    0.43
  -2 -11  -5    1.09    0.65
  -2  11  -5    1.34    0.53
   2  11   5    1.74    0.44
   2  11   5    2.46    0.65
  -2  11  -5    2.13    0.59
  -3 -11  -5    5.42    1.19
   3 -11   5    6.31    0.89
  -3 -11  -5    7.41    0.96
  -3  11  -5    7.03    1.09
  -3  11  -5    6.12    1.08
   3  11   5    6.38    1.06
   4 -11   5    1.14    0.47
  -4 -11  -5    0.25    0.40
  -4 -11  -5    1.10    0.74
  -4  11  -5    1.66    0.66
  -4  11  -5    0.08    0.41
   4  11   5   -0.07    0.47
  -4  11  -5    0.84    0.54
   5 -11   5   -0.35    0.34
  -5 -11  -5   -0.25    0.46
  -5  11  -5    0.15    0.50
   5  11   5    0.34    0.45
  -5  11  -5   -0.09    0.36
  -5  11  -5    0.42    0.57
   6 -11   5    0.95    0.48
  -6  11  -5    0.80    0.57
  -6  11  -5   -0.02    0.49
  -6  11  -5    1.18    0.55
   6  11   5   -0.25    0.54
   7 -11   5    0.41    0.47
  -7 -11  -5    0.02    0.52
  -7 -11  -5   -0.65    0.71
  -7  11  -5   -0.10    0.46
  -7  11  -5    0.57    0.58
  -7  11  -5   -0.44    0.45
   7  11   5    0.85    0.65
   8 -11   5    2.53    0.80
  -8 -11  -5    2.34    0.89
  -8 -11  -5    1.15    0.69
   8  11   5    2.00    0.82
  -8  11  -5    0.24    0.61
  -8  11  -5    0.91    0.66
  -8  11  -5    0.69    0.84
  10 -12  -5    0.31    0.65
  10 -12  -5    1.41    0.71
  10  12  -5    1.16    0.58
 -10  12   5    0.90    0.72
  10  12  -5   -0.02    0.42
   9 -12  -5   -0.40    0.45
   9 -12  -5   -0.10    0.53
  -9  12   5   -0.05    0.32
   9  12  -5   -0.74    0.35
   9  12  -5   -0.45    0.38
   8 -12  -5    1.91    0.88
   8 -12  -5    2.06    0.75
   8  12  -5    2.14    0.58
   8  12  -5    1.86    0.49
  -8  12   5    0.50    0.62
   8  12  -5    2.03    0.57
   7 -12  -5    1.86    0.70
   7 -12  -5    1.05    0.77
   7  12  -5    2.61    0.56
   7  12  -5    2.03    0.51
  -7  12   5    2.21    0.78
   7  12  -5    1.94    0.54
   6 -12  -5    1.90    0.81
   6 -12  -5    3.35    0.80
   6  12  -5    2.84    0.49
   6  12  -5    3.33    0.65
  -6  12   5    1.32    0.63
   6  12  -5    2.98    0.51
   5 -12  -5    0.14    0.47
   5 -12  -5   -0.35    0.27
   5 -12  -5    0.34    0.54
   5  12  -5    0.08    0.25
  -5  12   5    0.28    0.41
   4 -12  -5    6.30    1.01
   4 -12  -5    5.68    1.20
   4 -12  -5    6.12    0.95
   4 -12  -5    4.89    0.92
  -4  12   5    7.10    1.09
  -4  12   5    6.55    1.11
   4  12  -5    7.28    0.51
   3 -12  -5    0.74    0.42
   3 -12  -5   -0.01    0.17
   3 -12  -5    0.38    0.30
   3 -12  -5    0.11    0.31
   3 -12  -5    1.14    0.66
  -3  12   5    0.24    0.43
  -3  12   5    0.42    0.40
   2 -12  -5   -0.06    0.27
   2 -12  -5    0.58    0.30
   2 -12  -5    0.11    0.45
   2 -12  -5    0.10    0.32
  -2  12   5    0.20    0.37
  -2  12   5    0.33    0.42
   1 -12  -5    8.11    0.85
   1 -12  -5    8.12    0.83
   1 -12  -5    8.52    1.08
   1 -12  -5    6.61    1.25
  -1 -12   5    8.96    0.98
  -1  12   5   11.51    1.11
   1  12  -5    7.98    0.69
  -1  12   5    9.05    0.98
   0 -12  -5   15.65    1.08
   0 -12  -5   14.06    1.10
   0 -12  -5   13.38    1.88
   0 -12   5   13.98    1.15
   0  12  -5   13.00    0.94
   0  12  -5   12.39    1.30
   0  12   5   13.82    1.17
   0  12   5   14.45    1.14
   1 -12   5   28.49    1.32
  -1 -12  -5   30.11    2.27
  -1 -12  -5   31.54    1.52
  -1 -12  -5   31.77    1.55
   1 -12   5   28.10    1.56
  -1  12  -5   27.99    1.94
   1  12   5   32.10    2.08
   1  12   5   29.59    1.83
  -1  12  -5   29.75    1.56
  -2 -12  -5    5.63    0.72
  -2 -12  -5    5.45    0.77
   2 -12   5    4.86    0.79
   2 -12   5    5.18    0.83
  -2 -12  -5    3.98    1.07
  -2  12  -5    6.34    1.15
  -2  12  -5    4.12    0.80
   2  12   5    5.01    0.94
   2  12   5    5.26    0.69
  -3 -12  -5   14.01    1.07
  -3 -12  -5   15.57    2.13
  -3  12  -5   14.86    1.30
   3  12   5   14.63    1.27
  -3  12  -5    9.95    1.39
  -3  12  -5   15.23    1.33
  -4 -12  -5    1.39    0.55
  -4 -12  -5    1.42    0.79
  -4  12  -5    2.20    0.70
  -4  12  -5    2.16    0.69
  -4  12  -5    2.73    0.79
   4  12   5    2.38    0.71
  -5 -12  -5    6.96    0.98
   5 -12   5    6.18    0.99
  -5  12  -5    5.85    1.11
  -5  12  -5    6.25    1.22
  -5  12  -5    6.00    1.21
   5  12   5    7.55    1.24
  -6 -12  -5    1.20    0.59
   6 -12   5    0.56    0.51
  -6 -12  -5    0.57    0.67
  -6  12  -5    0.42    0.61
  -6  12  -5    0.84    0.59
  -6  12  -5    1.50    0.63
   6  12   5    2.27    0.68
  -7 -12  -5    1.54    0.73
   7 -12   5    1.43    0.66
  -7 -12  -5   -0.28    0.55
  -7  12  -5    1.22    0.75
  -7  12  -5    0.23    0.68
  -7  12  -5    1.28    0.68
   7  12   5    1.45    0.81
  10 -13  -5    1.41    0.93
  10 -13  -5    2.36    1.06
  10  13  -5    0.66    0.52
 -10  13   5    0.68    0.73
  10  13  -5    2.41    0.74
   9 -13  -5    3.32    1.21
   9 -13  -5    1.53    0.91
   9  13  -5    4.74    0.77
  -9  13   5    5.11    1.19
   9  13  -5    2.58    0.66
   8 -13  -5    1.14    0.80
   8 -13  -5    1.70    0.79
   8  13  -5    0.56    0.37
   8  13  -5    1.32    0.46
  -8  13   5    1.89    0.77
   7 -13  -5    7.44    1.27
   7 -13  -5    5.44    1.41
   7  13  -5    7.81    1.02
  -7  13   5    8.52    1.41
   7  13  -5    9.28    0.77
   6 -13  -5    5.06    1.41
   6 -13  -5    4.61    0.97
   6  13  -5    5.21    0.79
  -6  13   5    3.84    0.90
   5 -13  -5    6.51    1.42
   5 -13  -5    5.27    0.94
  -5  13   5    4.71    1.03
   4 -13  -5   23.07    1.74
   4 -13  -5   22.79    2.08
  -4  13   5   26.17    1.72
  -4  13   5   27.85    1.89
   3 -13  -5    8.82    1.38
   3 -13  -5   11.35    1.10
   3 -13  -5   14.26    1.29
   3 -13  -5   14.39    1.11
  -3  13   5   11.82    1.16
  -3  13   5   13.53    1.33
  -2 -13   5    2.47    0.73
   2 -13  -5    2.78    0.55
   2 -13  -5    4.10    0.82
   2 -13  -5    2.25    0.89
   2 -13  -5    2.81    0.84
   2 -13  -5    2.60    0.59
  -2  13   5    2.59    0.64
  -2  13   5    2.05    0.64
  -1 -13   5    3.57    0.84
   1 -13  -5    1.56    0.72
   1 -13  -5    3.33    0.63
   1 -13  -5    3.28    0.73
   1 -13  -5    3.93    0.66
   1 -13  -5    2.06    0.49
   1  13  -5    4.50    0.97
   1  13  -5    3.36    0.52
  -1  13   5    2.74    0.65
  -1  13   5    4.61    0.87
   0 -13  -5   19.48    1.15
   0 -13  -5   18.88    1.90
   0 -13  -5   17.65    1.30
   0 -13  -5   20.70    1.22
   0 -13   5   19.75    1.45
   0  13  -5   18.02    1.58
   0  13   5   23.34    1.46
   0  13   5   20.94    1.41
   0  13  -5   19.08    1.14
   1 -13   5   18.48    1.34
  -1 -13  -5   20.98    1.28
  -1 -13  -5   15.16    1.75
  -1 -13  -5   19.36    1.16
   1  13   5   18.30    1.34
  -1  13  -5   18.95    1.65
  -1  13  -5   20.10    1.28
   1  13   5   18.60    1.24
  -2 -13  -5    1.29    0.72
  -2 -13  -5    1.27    0.40
  -2 -13  -5    1.28    0.41
   2 -13   5    0.46    0.37
   2 -13   5    1.59    0.52
   2  13   5    0.82    0.50
  -2  13  -5    0.91    0.45
  -2  13  -5    1.28    0.61
  -3 -13  -5    0.67    0.75
  -3 -13  -5    0.36    0.38
  -3  13  -5    0.94    0.63
  -3  13  -5    0.99    0.53
  -3  13  -5    0.46    0.41
   3  13   5    1.06    0.52
   4 -13   5    1.86    0.61
  -4 -13  -5    1.87    0.96
  -4 -13  -5    0.04    0.41
   4  13   5    1.60    0.66
  -4  13  -5    0.51    0.52
  -4  13  -5    0.91    0.52
  -4  13  -5    1.08    0.52
   5 -13   5    4.14    0.86
  -5 -13  -5    2.46    0.94
  -5 -13  -5    5.13    0.81
   5  13   5    4.13    0.88
  -5  13  -5    2.79    0.84
  -5  13  -5    2.19    0.78
  -5  13  -5    3.64    0.84
  -6 -13  -5    2.77    0.77
  -6 -13  -5    2.66    0.74
   6 -13   5    2.99    0.85
   6  13   5    1.86    0.83
  -6  13  -5    1.14    0.62
  -6  13  -5    1.98    0.80
  -6  13  -5    2.38    0.84
   7 -13   5    0.41    0.66
  -7 -13  -5    0.88    0.71
  -7 -13  -5    1.09    0.99
  -7  13  -5    0.64    0.70
  -7  13  -5   -0.60    0.92
  -7  13  -5    0.77    0.59
   7  13   5   -0.82    0.64
   9 -14  -5    0.84    0.63
  -9  14   5    1.41    0.73
   9  14  -5    1.38    0.50
   9  14  -5    1.66    0.59
   8 -14  -5   -0.43    0.54
   8 -14  -5   -0.59    0.46
  -8  14   5   -0.96    0.41
   8  14  -5    0.63    0.40
   8  14  -5    0.42    0.44
   7 -14  -5   -0.54    0.41
   7 -14  -5    0.73    0.78
   7  14  -5    0.59    0.44
   7  14  -5    0.79    0.47
  -7  14   5   -0.15    0.53
   6 -14  -5    0.05    0.45
   6 -14  -5    1.64    0.99
  -6  14   5    0.51    0.50
  -5  14   5    2.66    0.84
   4 -14  -5    0.57    0.68
   4  14  -5    0.93    0.46
   3 -14  -5   12.07    1.95
   3 -14  -5    9.36    0.99
   3 -14  -5   12.06    1.52
   3  14  -5    9.34    1.24
  -3  14   5   10.54    1.36
  -3  14   5   10.62    1.12
  -2 -14   5    1.27    0.62
   2 -14  -5    0.28    0.61
   2 -14  -5    1.68    0.56
   2 -14  -5    0.61    0.44
   2 -14  -5    1.32    0.48
  -2  14   5    0.35    0.35
  -2  14   5    0.81    0.45
   2  14  -5    0.90    0.51
   1 -14  -5    9.17    1.71
   1 -14  -5    9.87    0.89
   1 -14  -5    9.55    1.04
  -1 -14   5   11.55    1.20
   1 -14  -5   11.10    0.90
  -1  14   5   11.38    1.07
   1  14  -5    9.05    1.33
   1  14  -5   10.44    0.71
  -1  14   5   10.00    1.29
   0 -14  -5   14.81    1.02
   0 -14  -5   15.37    1.25
   0 -14   5   14.22    1.29
   0 -14  -5   13.68    2.00
   0 -14  -5   14.02    1.01
   0  14  -5   15.87    1.52
   0  14  -5   15.95    1.03
   0  14   5   15.02    1.24
   0  14   5   14.89    1.25
   0  14  -5   15.92    1.01
  -1 -14  -5    0.40    0.64
   1 -14   5    1.69    0.58
  -1 -14  -5    0.62    0.37
  -1 -14  -5    0.52    0.37
  -1  14  -5    1.50    0.49
   1  14   5    1.69    0.54
  -1  14  -5    1.49    0.51
   1  14   5    0.77    0.39
  -1  14  -5    1.28    0.64
   2 -14   5    0.34    0.40
  -2 -14  -5   -0.13    0.33
   2 -14   5   -0.13    0.28
  -2  14  -5    0.12    0.40
   2  14   5   -0.07    0.42
  -2  14  -5   -0.81    0.28
  -2  14  -5   -0.50    0.27
   2  14   5    0.17    0.44
  -3 -14  -5    0.20    0.37
  -3 -14  -5    0.47    0.69
   3 -14   5   -0.02    0.37
  -3  14  -5   -0.49    0.32
  -3  14  -5    0.32    0.43
   3  14   5    0.63    0.51
  -3  14  -5    0.66    0.55
  -4 -14  -5    2.78    1.11
   4 -14   5    2.89    0.73
  -4  14  -5    4.32    0.98
   4  14   5    4.52    0.88
  -4  14  -5    2.61    0.75
  -4  14  -5    3.14    0.87
  -5 -14  -5    0.68    0.55
   5 -14   5    0.22    0.48
  -5 -14  -5    0.09    0.68
  -5  14  -5    0.19    0.50
  -5  14  -5    0.17    0.46
  -5  14  -5    0.62    0.42
   5  14   5   -0.13    0.46
  -6 -14  -5    0.61    0.65
   6 -14   5    1.01    0.65
  -6  14  -5    1.17    0.86
  -6  14  -5    2.03    0.74
  -6  14  -5    0.35    0.54
   6  14   5    2.62    0.76
   8 -15  -5   -0.17    0.53
   8 -15  -5    0.44    0.67
  -8  15   5    0.10    0.55
   8  15  -5   -0.34    0.32
   8  15  -5    0.73    0.47
   7 -15  -5    6.58    1.59
   7 -15  -5    5.34    1.13
   7  15  -5    3.73    0.72
  -7  15   5    4.51    1.11
   7  15  -5    4.96    0.83
   6 -15  -5    0.32    0.40
   6 -15  -5    1.30    0.81
  -6  15   5    0.32    0.48
   6  15  -5   -0.70    0.31
   5 -15  -5    1.21    0.72
   5  15  -5    0.53    0.40
  -5  15   5   -0.19    0.43
   4 -15  -5    4.93    1.43
   4 -15  -5    2.27    0.65
   4  15  -5    4.38    0.87
  -4  15   5    3.74    0.88
   3 -15  -5    2.62    0.66
   3 -15  -5    2.95    1.31
   3  15  -5    1.65    0.58
  -3  15   5    2.30    0.67
  -3  15   5    3.07    0.93
   2 -15  -5    0.50    0.67
  -2 -15   5   -0.16    0.44
   2 -15  -5   -0.43    0.30
   2 -15  -5   -0.23    0.39
   2  15  -5   -0.03    0.34
  -2  15   5    0.32    0.41
  -2  15   5    0.35    0.34
   1 -15  -5    8.20    0.82
  -1 -15   5   10.08    1.40
   1 -15  -5    8.95    1.18
   1 -15  -5   11.67    2.32
  -1  15   5   10.79    1.17
  -1  15   5    8.43    0.97
   1  15  -5    8.87    2.02
   1  15  -5    9.60    0.66
   0 -15  -5   -0.25    0.50
   0 -15  -5    0.26    0.49
   0 -15  -5    0.90    0.48
   0 -15   5    1.17    0.57
   0  15   5    0.42    0.39
   0  15  -5    1.33    0.62
   0  15  -5    0.70    0.35
   0  15  -5    1.37    0.40
  -1 -15  -5    1.32    0.84
  -1 -15  -5    1.25    0.42
   1 -15   5    2.03    0.65
  -1  15  -5    1.99    0.51
   1  15   5    2.00    0.56
   1  15   5    1.64    0.53
  -1  15  -5    1.83    0.76
  -1  15  -5    1.62    0.50
   2 -15   5    9.17    1.26
  -2 -15  -5    6.81    1.37
  -2  15  -5    8.69    0.98
  -2  15  -5    7.33    0.97
  -2  15  -5    7.34    1.25
   2  15   5    8.11    0.84
   3 -15   5    6.25    1.10
  -3 -15  -5    5.15    1.37
   3 -15   5    5.88    0.85
  -3  15  -5    5.33    1.14
   3  15   5    5.58    0.94
  -3  15  -5    6.12    0.98
  -3  15  -5    6.29    1.06
   4 -15   5    2.23    0.67
   4 -15   5    1.95    0.64
  -4 -15  -5    2.10    0.56
  -4 -15  -5    1.64    0.99
  -4  15  -5    2.72    0.77
  -4  15  -5    1.52    0.64
  -4  15  -5    3.05    1.07
   4  15   5    0.88    0.61
  -5 -15  -5    0.87    0.79
   5 -15   5    1.61    0.65
   5 -15   5    1.43    0.61
  -5 -15  -5    1.64    0.59
  -5  15  -5    1.86    0.73
   5  15   5    2.13    0.89
  -5  15  -5    1.74    0.76
  -5  15  -5    0.50    0.61
   8 -16  -5    0.92    0.79
   8 -16  -5    0.35    0.65
  -8  16   5    0.36    0.77
   8  16  -5    0.31    0.44
   8  16  -5   -0.62    0.45
   7 -16  -5    3.10    1.20
   7 -16  -5    5.77    1.23
   7  16  -5    5.63    0.88
   7  16  -5    5.88    0.86
  -7  16   5    5.41    1.24
   6 -16  -5   13.38    2.16
   6 -16  -5   12.35    1.35
   6  16  -5   14.54    1.27
  -6  16   5   16.30    1.72
   5 -16  -5    0.17    0.47
   5 -16  -5   -0.90    0.47
   5  16  -5   -0.76    0.36
  -5  16   5    0.01    0.40
   4 -16  -5    0.91    0.80
   4 -16  -5   -0.17    0.40
   4  16  -5    1.23    0.55
  -4  16   5    0.34    0.55
   3 -16  -5   -0.86    0.33
   3  16  -5    0.09    0.44
  -3  16   5   -0.15    0.40
   2 -16  -5    0.46    0.59
  -2 -16   5    0.34    0.46
   2 -16  -5    0.20    0.36
  -2  16   5   -0.05    0.34
   2  16  -5    1.33    0.60
  -2  16   5    0.31    0.38
  -1 -16   5    6.70    1.17
   1 -16  -5    8.76    1.24
   1 -16  -5    6.09    1.48
   1 -16  -5    7.24    0.80
  -1  16   5    7.47    1.18
  -1  16   5   10.85    1.44
   1  16  -5    7.31    1.21
   0 -16  -5    2.79    1.15
   0 -16   5    2.69    0.83
   0 -16  -5    1.70    0.69
   0  16   5    0.86    0.52
   0  16  -5    1.65    0.70
   0  16   5    1.76    0.63
   0  16  -5    1.57    0.43
   1 -16   5    8.10    1.27
  -1 -16  -5    8.96    1.78
  -1  16  -5    7.02    0.80
   1  16   5    6.99    1.04
  -1  16  -5    7.27    0.80
  -1  16  -5    5.63    1.09
   1  16   5    8.69    0.97
   2 -16   5   -0.71    0.36
  -2 -16  -5   -0.09    0.51
   2  16   5   -0.03    0.35
  -2  16  -5    1.66    0.65
  -2  16  -5    0.95    0.35
   2  16   5    0.05    0.44
  -2  16  -5    0.19    0.35
   3 -16   5    0.25    0.61
  -3 -16  -5    0.80    0.75
   3 -16   5   -0.16    0.45
  -3  16  -5    0.83    0.50
   3  16   5    0.31    0.49
  -3  16  -5    0.34    0.59
  -3  16  -5   -0.09    0.41
  -4 -16  -5    4.68    1.30
   4 -16   5    4.24    0.85
   4 -16   5    4.16    0.99
  -4 -16  -5    4.84    0.85
  -4  16  -5    4.20    1.01
  -4  16  -5    6.65    1.11
  -4  16  -5    4.38    0.93
   4  16   5    5.37    0.94
   5 -16   5    0.89    0.71
  -5 -16  -5    1.00    0.54
  -5 -16  -5    0.57    0.85
   5 -16   5   -0.32    0.51
  -5  16  -5    0.71    0.57
   5  16   5    0.92    0.57
  -5  16  -5    0.31    0.62
  -5  16  -5   -0.17    0.61
   7 -17  -5    0.48    0.56
   7 -17  -5    0.95    0.75
   7  17  -5   -0.18    0.56
   7  17  -5    0.43    0.68
  -7  17   5    0.52    0.71
   6 -17  -5    6.02    1.37
   6 -17  -5    4.21    0.95
  -6  17   5    2.98    1.00
   6  17  -5    5.31    0.97
   5 -17  -5   -0.11    0.62
   5 -17  -5    1.05    0.57
  -5  17   5    0.30    0.51
   5  17  -5   -0.18    0.36
   4 -17  -5    0.47    0.51
   4 -17  -5    0.63    0.75
  -4  17   5    0.01    0.45
   4  17  -5    1.22    0.53
   3 -17  -5    1.74    0.99
  -3  17   5    0.32    0.48
   3  17  -5    0.80    0.49
   2 -17  -5   -0.52    0.42
  -2 -17   5   -0.42    0.43
  -2  17   5    0.50    0.47
   2  17  -5   -0.12    0.37
   1 -17  -5    0.39    0.59
  -1 -17   5    2.47    0.85
  -1  17   5    2.08    0.64
  -1  17   5    0.52    0.53
   1  17  -5    3.56    0.98
   0 -17   5    1.84    0.78
   0 -17  -5    1.87    0.82
   0  17  -5    1.73    0.73
   0  17   5    2.35    0.69
   0  17  -5    1.73    0.42
  -1 -17  -5    1.36    0.89
   1 -17   5    1.07    0.60
  -1  17  -5    1.42    0.46
  -1  17  -5    1.35    0.79
   1  17   5    0.20    0.44
   1  17   5    2.91    0.65
  -1  17  -5    1.50    0.47
   2 -17   5   -0.30    0.49
  -2 -17  -5    0.25    0.61
   2  17   5    1.05    0.45
  -2  17  -5    0.96    0.41
   2  17   5   -0.57    0.41
  -2  17  -5    0.00    0.52
  -2  17  -5    0.78    0.47
   3 -17   5   -0.16    0.51
  -3 -17  -5   -0.25    0.56
   3  17   5   -0.82    0.45
  -3  17  -5    0.25    0.60
  -3  17  -5    0.78    0.49
  -3  17  -5    0.72    0.51
   4 -17   5    0.35    0.58
  -4 -17  -5    1.26    0.89
   4  17   5    0.07    0.54
  -4  17  -5    0.61    0.58
  -4  17  -5    0.60    0.83
  -4  17  -5    1.73    0.82
   5 -18  -5    3.61    1.20
   5 -18  -5    3.92    0.90
   5  18  -5    3.85    1.14
  -5  18   5    2.28    0.95
   4 -18  -5    4.84    1.07
   4 -18  -5    3.87    1.34
  -4  18   5    3.61    0.92
   4  18  -5    2.38    0.75
   3 -18  -5    0.30    0.58
   3 -18  -5   -1.00    0.42
   3  18  -5    0.44    0.53
  -3  18   5    0.20    0.47
   2 -18  -5    0.65    0.67
  -2 -18   5    0.03    0.44
   2  18  -5    0.08    0.55
  -2  18   5   -0.74    0.46
  -1 -18   5    0.78    0.56
   1 -18  -5    0.57    0.66
  -1  18   5    0.40    0.40
   1  18  -5    0.49    0.46
  -1  18   5   -0.08    0.43
   0 -18  -5    1.87    1.00
   0 -18   5    0.64    0.64
   0  18   5    0.24    0.44
   0  18   5    1.18    0.52
   0  18  -5    1.83    0.81
   1 -18   5    6.00    1.21
  -1 -18  -5    2.45    1.12
  -1  18  -5    4.95    1.10
  -1  18  -5    5.31    0.76
   1  18   5    6.55    1.01
   1  18   5    5.40    0.90
  -1  18  -5    4.99    0.73
  -2 -18  -5   -0.30    0.55
   2 -18   5   -0.81    0.41
  -2  18  -5    0.06    0.40
   2  18   5    0.03    0.49
  -2  18  -5    0.50    0.35
   2  18   5    0.11    0.36
  -2  18  -5   -0.58    0.53
   3 -18   5    1.05    0.73
  -3 -18  -5    1.90    1.07
  -3  18  -5    2.12    0.74
  -3  18  -5    2.73    0.98
  -3  18  -5    3.75    0.82
   3  18   5    1.95    0.66
   4 -19  -5   -1.65    0.57
   4 -19  -5   -0.02    0.67
   4  19  -5   -0.14    0.44
  -4  19   5    0.04    0.55
   3 -19  -5    4.03    1.26
   3  19  -5    2.04    0.75
  -3  19   5    1.95    0.90
   2 -19  -5    1.85    1.02
  -2 -19   5    0.10    0.90
   2  19  -5    0.83    0.75
  -2  19   5    1.20    0.53
   1 -19  -5    3.11    1.23
  -1 -19   5    1.53    1.11
   1  19  -5    1.43    0.78
  -1  19   5    2.14    0.77
   0 -19   5    0.07    0.57
   0 -19  -5    1.23    0.93
   0  19  -5    1.25    0.68
   0  19   5    0.87    0.46
  -1 -19  -5   11.43    1.96
   1 -19   5   18.26    1.78
  -1  19  -5   17.59    1.09
  -1  19  -5   16.36    1.79
   1  19   5   14.96    1.35
   1  19   5   18.83    1.38
  13   0  -6    1.21    0.89
 -13   0   6    0.30    0.50
 -12   0   6    0.84    0.57
  12   0  -6    0.54    0.76
  12   0  -6    0.48    0.65
  11   0  -6    2.95    0.91
  11   0  -6    1.68    0.64
  11   0  -6    2.56    0.87
 -11   0   6    1.15    0.57
  11   0  -6    2.44    0.76
 -10   0   6    3.13    0.77
  10   0  -6    3.63    1.00
  10   0  -6    2.90    0.66
  10   0  -6    4.96    1.00
  10   0  -6    3.29    0.81
  -9   0   6    8.68    1.07
   9   0  -6    9.02    1.05
   9   0  -6    8.50    1.36
   9   0  -6    7.64    1.32
   9   0  -6    8.06    1.93
   8   0  -6   18.82    1.35
   8   0  -6   16.90    1.43
  -8   0   6   18.04    1.36
   8   0  -6   20.61    1.53
   8   0  -6   18.77    1.58
   7   0  -6   12.40    1.16
  -7   0   6   12.80    1.10
   7   0  -6   13.11    1.27
   7   0  -6   12.83    1.08
   7   0  -6   11.79    1.16
   6   0  -6   16.73    1.34
  -6   0   6   16.30    1.20
   6   0  -6   17.50    1.23
   6   0  -6   18.90    1.33
   6   0  -6   17.65    1.28
  -6   0   6   17.96    1.29
   5   0  -6    1.34    0.44
   5   0  -6    1.18    0.43
   5   0  -6    0.99    0.53
  -5   0   6    1.33    0.46
  -5   0   6    1.39    0.45
   4   0  -6    3.11    0.92
  -4   0   6    2.62    0.58
   4   0  -6    2.61    0.56
  -4   0   6    2.30    0.54
   3   0  -6    3.40    0.69
  -3   0   6    3.92    0.68
   3   0  -6    3.64    0.64
  -3   0   6    2.34    0.53
  -2   0   6  112.46    3.31
   2   0  -6  110.94    2.85
   2   0  -6  107.70    3.31
   1   0  -6  457.27    9.55
   1   0  -6  461.18    9.79
   1   0  -6  440.87    8.86
   0   0   6  561.12   10.89
   0   0  -6  571.99   10.94
   0   0   6  575.58   11.94
   0   0  -6  556.70   11.88
   0   0  -6  574.94   11.62
   1   0   6    0.97    0.30
  -1   0  -6    0.98    0.48
   2   0   6    1.56    0.38
   2   0   6    1.09    0.45
   3   0   6   27.23    1.72
   3   0   6   24.64    1.27
  -4   0  -6   29.32    1.91
   4   0   6   31.25    1.94
  -5   0  -6   31.23    2.09
   5   0   6   31.73    2.09
  -6   0  -6   11.78    1.07
   6   0   6   11.25    1.60
  -6   0  -6   14.51    1.56
   7   0   6    2.55    0.80
  -7   0  -6    4.68    1.13
  -7   0  -6    3.91    0.71
  -8   0  -6    8.96    1.61
  -8   0  -6    6.69    0.96
  -9   0  -6    0.77    0.94
  -9   0  -6    1.59    0.58
  13  -1  -6    0.47    0.69
  13   1  -6    0.34    0.70
 -13   1   6   -0.46    0.41
  13   1  -6    0.81    1.00
  12  -1  -6    1.01    0.57
  12  -1  -6   -1.03    0.58
 -12  -1   6   -0.58    0.30
  12  -1  -6   -0.09    0.68
 -12   1   6   -0.49    0.43
  12   1  -6   -0.32    0.58
  12   1  -6   -1.39    0.63
  12   1  -6    0.62    0.58
  11  -1  -6    0.74    0.71
  11  -1  -6    1.32    0.63
  11  -1  -6    1.68    0.60
  11  -1  -6    2.12    1.18
 -11  -1   6    2.63    0.71
  11   1  -6    2.69    0.84
  11   1  -6    1.89    0.78
  11   1  -6    1.19    0.69
  11   1  -6    1.12    0.54
 -11   1   6    2.58    0.70
  10  -1  -6   -0.39    0.38
 -10  -1   6    0.49    0.44
  10  -1  -6    0.23    0.56
  10  -1  -6   -0.15    0.39
  10  -1  -6    0.90    0.49
  10   1  -6    0.92    0.42
  10   1  -6    0.51    0.47
  10   1  -6    0.70    0.60
 -10   1   6    0.49    0.44
   9  -1  -6    2.14    0.76
   9  -1  -6    2.83    0.77
  -9  -1   6    2.54    0.69
   9  -1  -6    1.11    0.63
   9  -1  -6    2.93    0.97
   9   1  -6    1.29    0.66
   9   1  -6    2.52    0.61
   9   1  -6    1.21    0.71
   9   1  -6    1.51    0.57
  -9   1   6    2.85    0.73
   8  -1  -6   -0.98    0.35
   8  -1  -6    0.02    0.43
   8  -1  -6   -0.45    0.23
  -8  -1   6    0.11    0.37
   8  -1  -6   -0.19    0.31
   8   1  -6    0.31    0.40
   8   1  -6    0.42    0.33
  -8   1   6    0.18    0.34
   8   1  -6    0.11    0.40
   8   1  -6   -0.52    0.29
   7  -1  -6    1.28    0.45
  -7  -1   6    2.09    0.60
   7  -1  -6    1.11    0.50
   7  -1  -6    0.71    0.44
   7  -1  -6    0.62    0.44
   7   1  -6    0.76    0.45
   7   1  -6    1.38    0.45
  -7   1   6    0.47    0.38
   7   1  -6    0.75    0.43
   7   1  -6   -0.28    0.36
   6  -1  -6    5.98    0.90
   6  -1  -6    7.95    1.14
   6  -1  -6    7.88    1.07
  -6  -1   6    5.99    0.84
   6  -1  -6    7.43    1.35
   6   1  -6    7.07    0.96
   6   1  -6    7.83    1.08
   6   1  -6    5.76    0.85
  -6   1   6    7.65    0.96
  -6   1   6    5.45    0.88
   6   1  -6    8.31    1.07
   5  -1  -6    2.09    0.56
  -5  -1   6    3.09    0.62
   5  -1  -6    3.33    0.68
   5  -1  -6    2.97    0.61
   5   1  -6    3.85    0.70
  -5   1   6    4.45    0.78
   5   1  -6    2.99    0.65
  -5   1   6    2.93    0.62
   5   1  -6    4.39    0.72
   4  -1  -6   18.37    1.18
   4  -1  -6   18.35    1.29
  -4  -1   6   18.11    1.18
  -4  -1   6   18.18    1.18
  -4   1   6   18.02    1.20
  -4   1   6   17.51    1.22
   4   1  -6   18.64    1.19
   4   1  -6   18.26    1.25
   3  -1  -6    8.84    0.92
   3  -1  -6    9.94    0.87
  -3  -1   6    8.93    0.86
  -3   1   6    8.07    1.54
   3   1  -6    7.71    0.80
  -3   1   6    8.98    0.86
   3   1  -6    7.92    0.85
   2  -1  -6    0.77    0.41
  -2  -1   6    0.22    0.32
   2  -1  -6   -0.03    0.34
   2  -1  -6    0.22    0.27
  -2   1   6    0.47    0.33
   2   1  -6   -0.01    0.31
  -2   1   6    0.16    0.30
   2   1  -6    0.16    0.26
  -1  -1   6   66.90    2.40
   1  -1  -6   61.15    1.92
   1  -1  -6   62.66    2.40
   1  -1  -6   64.92    2.23
   1   1  -6   65.47    1.67
  -1   1   6   62.61    2.39
   1   1  -6   64.33    2.38
   0  -1  -6  115.36    3.54
   0  -1  -6  115.61    3.28
   0  -1  -6  122.43    3.03
   0   1  -6  114.35    2.58
   0   1  -6  118.73    3.56
   0   1   6  118.46    2.99
   1  -1   6    7.44    0.48
  -1  -1  -6    6.84    0.69
  -1  -1  -6    6.93    0.99
  -1  -1  -6    6.83    0.65
   1  -1   6    7.49    0.86
  -1   1  -6    5.60    1.01
   1   1   6    6.71    0.59
   1   1   6    5.75    0.85
  -2  -1  -6   15.48    1.27
   2  -1   6   15.46    1.24
   2  -1   6   15.26    0.82
   2   1   6   15.81    1.28
   2   1   6   15.78    0.97
  -2   1  -6   15.85    1.33
   3  -1   6    4.35    0.61
  -3  -1  -6    2.56    0.77
   3  -1   6    4.24    0.85
  -3   1  -6    2.19    0.76
   3   1   6    3.58    0.66
   3   1   6    4.23    0.93
   4  -1   6    0.29    0.32
  -4  -1  -6    0.01    0.40
   4  -1   6    0.46    0.40
  -4   1  -6   -0.01    0.41
   4   1   6   -0.46    0.38
   5  -1   6    0.53    0.49
  -5  -1  -6    0.54    0.52
   5   1   6    0.44    0.48
  -5   1  -6    0.45    0.42
  -5   1  -6    0.46    0.54
   6  -1   6    0.33    1.02
  -6  -1  -6    1.17    0.80
  -6  -1  -6    0.95    0.68
   6   1   6    0.11    0.46
  -6   1  -6    1.09    0.67
   7  -1   6   15.84    1.78
  -7  -1  -6   19.07    1.82
  -7  -1  -6   17.33    1.21
  -7   1  -6   16.28    1.31
  -7   1  -6   18.81    1.82
   7   1   6   16.31    1.89
  -8  -1  -6    1.56    0.49
  -8  -1  -6    1.47    0.78
   8   1   6    2.19    0.93
  -8   1  -6    0.92    0.77
  -8   1  -6    1.42    0.53
  -9  -1  -6    1.79    0.97
  -9  -1  -6    1.88    0.62
  -9  -1  -6    0.93    0.93
  -9   1  -6    1.43    0.58
  -9   1  -6    1.34    0.87
  -9   1  -6    0.11    0.66
  13  -2  -6   -0.03    0.55
  13   2  -6    0.08    0.88
  13   2  -6    1.36    0.61
 -13   2   6    1.12    0.64
  13   2  -6    0.26    0.79
  12  -2  -6    0.49    0.77
 -12  -2   6    2.77    0.68
  12  -2  -6    2.12    0.94
  12   2  -6    1.90    0.81
 -12   2   6    2.95    0.82
  12   2  -6    1.23    0.67
  12   2  -6    1.90    0.93
  11  -2  -6    0.31    0.47
  11  -2  -6    0.67    0.67
 -11  -2   6    0.46    0.47
  11  -2  -6    0.29    0.63
  11   2  -6    0.87    0.52
 -11   2   6    0.28    0.47
  11   2  -6    1.44    0.76
  11   2  -6    0.70    0.53
  11   2  -6   -0.16    0.50
  10  -2  -6    1.32    0.65
  10  -2  -6    1.58    0.82
  10  -2  -6    0.47    0.57
 -10  -2   6    1.17    0.52
  10  -2  -6    0.64    0.50
 -10   2   6    1.08    0.54
  10   2  -6    0.50    0.51
  10   2  -6    1.11    0.48
  10   2  -6    1.68    0.65
  10   2  -6    1.91    0.60
   9  -2  -6    0.35    0.44
   9  -2  -6    0.20    0.53
   9  -2  -6    0.79    0.53
  -9  -2   6    1.08    0.51
   9  -2  -6    0.27    0.47
   9   2  -6    0.72    0.51
   9   2  -6    1.99    0.60
   9   2  -6    1.40    0.64
  -9   2   6    0.85    0.45
   9   2  -6    1.02    0.43
   8  -2  -6    9.38    1.04
   8  -2  -6   11.11    1.45
  -8  -2   6    8.94    1.11
   8  -2  -6    7.52    1.21
   8  -2  -6   10.21    1.40
   8   2  -6    8.47    1.23
   8   2  -6    9.65    0.95
  -8   2   6   10.40    1.43
   8   2  -6   10.57    1.20
   8   2  -6    7.40    1.06
  -7  -2   6    8.67    0.93
   7  -2  -6    8.72    1.26
   7  -2  -6    9.67    1.00
   7  -2  -6   10.27    1.09
   7  -2  -6   13.62    2.25
   7   2  -6    9.27    0.91
   7   2  -6   10.06    1.03
  -7   2   6    9.21    1.00
   7   2  -6    9.40    1.02
   7   2  -6    7.51    1.07
   6  -2  -6    0.09    0.32
   6  -2  -6    0.08    0.36
   6  -2  -6    0.34    0.30
   6  -2  -6    0.28    0.39
  -6  -2   6   -0.07    0.24
   6   2  -6    0.47    0.33
  -6   2   6    0.34    0.32
  -6   2   6   -0.17    0.24
   6   2  -6   -0.24    0.26
   6   2  -6   -0.05    0.26
   6   2  -6   -0.04    0.25
  -5  -2   6    9.27    0.86
   5  -2  -6    8.11    1.10
   5  -2  -6    8.29    0.86
   5  -2  -6    7.92    0.86
   5   2  -6    8.50    0.83
  -5   2   6    8.18    0.87
  -5   2   6    9.83    0.95
   5   2  -6    8.95    0.92
   4  -2  -6    6.00    0.81
   4  -2  -6    6.02    0.93
  -4  -2   6    6.84    0.74
  -4   2   6    7.98    1.08
   4   2  -6    7.18    0.77
   4   2  -6    5.57    1.16
   3  -2  -6    5.75    0.84
   3  -2  -6    5.06    0.79
  -3  -2   6    4.54    0.69
   3  -2  -6    3.92    0.62
   3   2  -6    5.02    0.79
  -3   2   6    4.66    0.72
  -3   2   6    4.63    0.68
  -2  -2   6    8.97    0.82
   2  -2  -6    7.87    0.76
   2  -2  -6    5.92    0.82
   2   2  -6    7.57    0.83
   2   2  -6    8.35    0.81
  -2   2   6    7.85    0.86
   1  -2  -6  126.91    3.33
  -1  -2   6  122.64    3.59
   1  -2  -6  127.48    3.74
   1  -2  -6  127.21    3.47
  -1   2   6  127.05    3.73
   1   2  -6  125.74    3.64
   0  -2  -6    0.36    0.30
   0  -2   6    0.02    0.28
   0  -2  -6    0.16    0.34
   0  -2  -6    0.23    0.28
   0   2   6    0.24    0.34
  -1  -2  -6    7.09    0.97
   1  -2   6    7.42    1.01
  -1  -2  -6    6.06    0.65
  -1  -2  -6    5.92    0.68
   1   2   6    6.88    0.65
  -1   2  -6    5.89    0.93
   1   2   6    5.07    0.78
  -2  -2  -6   32.16    1.76
  -2  -2  -6   29.34    1.37
   2  -2   6   30.54    1.09
  -2  -2  -6   29.50    1.50
   2  -2   6   25.08    1.60
   2   2   6   29.05    1.72
   2   2   6   30.28    1.46
  -2   2  -6   32.84    1.80
   3  -2   6    1.55    0.61
  -3  -2  -6    3.29    0.70
  -3  -2  -6    3.49    0.57
   3  -2   6    3.31    0.52
   3   2   6    3.42    0.76
  -3   2  -6    2.13    0.62
  -4  -2  -6    3.69    0.90
   4  -2   6    3.75    0.65
   4  -2   6    4.35    0.97
   4   2   6    1.80    0.65
  -4   2  -6    3.97    0.88
   5  -2   6    6.81    1.25
  -5  -2  -6    5.14    1.08
  -5   2  -6    5.69    1.15
  -5   2  -6    4.82    0.85
   5   2   6    4.36    0.91
  -6  -2  -6    1.72    0.73
  -6  -2  -6    1.16    0.42
   6  -2   6    1.56    0.74
  -6   2  -6    0.40    0.46
   6   2   6    0.00    0.60
  -6   2  -6    1.73    0.71
  -7  -2  -6    3.41    0.99
  -7  -2  -6    2.98    0.93
  -7   2  -6    4.00    0.86
  -7   2  -6    3.49    1.00
   7   2   6    3.33    0.98
  -8  -2  -6    2.03    0.93
  -8   2  -6    2.00    0.95
  -8   2  -6    2.76    0.72
   8   2   6    2.51    0.99
  -9  -2  -6    1.45    0.94
  -9  -2  -6    0.55    0.76
  -9   2  -6    1.41    0.67
  -9   2  -6    1.18    0.76
  -9   2  -6    1.96    1.04
  13  -3  -6    0.12    0.70
 -13   3   6    1.11    0.65
  13   3  -6   -0.42    0.71
  13   3  -6   -0.43    0.51
  12  -3  -6    0.73    0.73
  12  -3  -6    0.49    0.57
 -12   3   6    0.56    0.49
  12   3  -6   -0.77    0.55
  12   3  -6    0.38    0.55
  12   3  -6    2.39    0.86
  11  -3  -6    2.05    0.84
 -11  -3   6    1.38    0.56
  11  -3  -6    1.13    0.79
  11   3  -6    1.59    0.65
  11   3  -6    0.07    0.62
 -11   3   6    0.97    0.62
  11   3  -6    1.96    0.80
  11   3  -6    1.12    0.58
  10  -3  -6    1.49    0.59
 -10  -3   6    0.99    0.49
  10  -3  -6    0.87    0.61
  10  -3  -6    1.03    0.56
  10  -3  -6    1.13    0.71
  10   3  -6    2.06    0.80
  10   3  -6    0.68    0.41
  10   3  -6    0.16    0.51
 -10   3   6    2.63    0.73
  10   3  -6    0.81    0.60
   9  -3  -6    0.86    0.47
   9  -3  -6    0.68    0.48
  -9  -3   6    0.42    0.39
   9  -3  -6   -0.23    0.37
   9  -3  -6   -0.12    0.44
   9   3  -6    0.46    0.47
  -9   3   6   -0.18    0.31
   9   3  -6    0.94    0.40
   9   3  -6    0.82    0.56
   9   3  -6    0.89    0.55
   8  -3  -6   18.74    1.40
   8  -3  -6   18.52    1.53
   8  -3  -6   17.58    1.48
   8  -3  -6   18.72    1.63
  -8  -3   6   17.35    1.29
   8   3  -6   15.26    1.17
   8   3  -6   17.46    1.40
  -8   3   6   16.35    1.34
   8   3  -6   14.72    1.35
   8   3  -6   15.74    1.31
   7  -3  -6    7.14    1.09
   7  -3  -6    7.70    1.10
   7  -3  -6    6.09    0.97
   7  -3  -6    9.73    1.00
   7   3  -6    7.86    1.09
   7   3  -6    9.55    0.92
  -7   3   6    8.32    1.13
   7   3  -6    8.11    1.04
   7   3  -6    7.35    1.02
   6  -3  -6    8.49    1.58
   6  -3  -6    7.82    0.91
   6  -3  -6    6.29    0.84
   6  -3  -6    9.85    1.23
  -6   3   6    9.18    1.17
   6   3  -6    8.12    0.93
   6   3  -6    6.88    0.93
   6   3  -6    7.68    0.84
   6   3  -6    8.25    1.02
  -6   3   6    8.08    1.10
   5  -3  -6   45.32    2.16
  -5  -3   6   44.63    1.87
   5  -3  -6   43.43    1.96
   5  -3  -6   42.81    2.02
  -5   3   6   42.96    1.98
   5   3  -6   40.38    1.90
  -5   3   6   47.26    2.11
   5   3  -6   42.81    1.87
   4  -3  -6    0.17    0.30
   4  -3  -6   -0.18    0.28
  -4  -3   6   -0.08    0.21
  -4   3   6    0.26    0.38
   4   3  -6   -0.03    0.21
   4   3  -6   -0.06    0.27
  -4   3   6    0.18    0.30
  -3  -3   6    9.17    0.82
   3  -3  -6    8.50    0.94
   3  -3  -6    8.09    0.83
   3  -3  -6    7.52    0.85
   3   3  -6    7.38    0.82
   3   3  -6    7.56    0.84
  -3   3   6    6.96    0.81
  -3   3   6    8.22    0.88
   2  -3  -6    0.23    0.32
   2  -3  -6   -0.04    0.24
  -2  -3   6    0.40    0.31
   2  -3  -6    0.66    0.37
   2   3  -6    0.26    0.34
  -2   3   6    0.37    0.31
  -2   3   6    0.16    0.42
   1  -3  -6   -0.27    0.21
   1  -3  -6    0.09    0.30
  -1  -3   6    0.00    0.23
   1  -3  -6    0.37    0.37
  -1   3   6   -0.46    0.22
   1   3  -6    0.02    0.28
  -1   3   6    0.10    0.24
  -1   3   6    0.00    0.28
   0  -3  -6    6.56    0.71
   0  -3  -6    8.20    0.94
   0  -3   6    7.32    0.83
   0  -3  -6    7.83    0.80
   0   3   6    5.22    1.24
   0   3   6    7.09    0.74
   0   3  -6    7.40    0.87
  -1  -3  -6    0.16    0.26
  -1  -3  -6    0.28    0.34
  -1  -3  -6    0.68    0.40
   1  -3   6    0.25    0.32
   1   3   6    0.03    0.31
   1   3   6    0.61    0.39
  -1   3  -6    0.27    0.35
   2  -3   6    1.57    0.50
  -2  -3  -6    1.97    0.61
   2  -3   6    1.79    0.29
  -2  -3  -6    2.06    0.53
  -2  -3  -6    0.85    0.35
  -2   3  -6    1.35    0.50
   2   3   6    1.92    0.56
   3  -3   6    9.86    1.09
   3  -3   6    9.86    0.70
  -3  -3  -6   10.13    0.80
  -3  -3  -6    8.98    1.08
   3   3   6    9.38    1.52
  -3   3  -6   12.02    1.21
  -4  -3  -6   13.48    1.34
   4  -3   6   10.41    1.21
  -4  -3  -6   12.59    0.87
   4  -3   6   12.74    0.91
   4   3   6   14.22    1.34
  -4   3  -6   12.04    1.30
   5  -3   6    9.16    1.48
  -5  -3  -6   10.88    0.82
  -5  -3  -6   10.88    1.54
  -5   3  -6    9.54    1.41
   5   3   6   10.04    1.44
  -5   3  -6   11.80    1.16
  -6  -3  -6    0.36    0.32
  -6  -3  -6   -0.34    0.25
  -6  -3  -6   -0.75    0.43
   6  -3   6   -0.25    0.49
  -6   3  -6   -0.06    0.40
  -6   3  -6    0.34    0.52
   6   3   6    0.52    0.56
  -7  -3  -6   19.66    1.86
  -7   3  -6   21.56    1.98
   7   3   6   24.19    2.01
  -7   3  -6   21.95    1.63
  -8  -3  -6    3.40    1.09
  -8   3  -6    3.57    1.03
   8   3   6    2.25    0.90
  -8   3  -6    2.67    0.94
  -8   3  -6    3.79    0.86
  -9  -3  -6    4.03    1.20
  -9  -3  -6    2.16    1.03
  -9   3  -6    3.78    0.90
  -9   3  -6    3.89    1.04
  -9   3  -6    3.96    1.15
  12  -4  -6    8.07    1.66
  12   4  -6    7.18    0.93
  12   4  -6    5.44    1.14
 -12   4   6    9.24    1.36
  12   4  -6    8.03    1.53
  11  -4  -6    4.40    1.05
  11  -4  -6    3.99    1.12
  11   4  -6    3.04    0.69
  11   4  -6    2.62    0.89
 -11   4   6    4.07    0.94
  11   4  -6    4.95    0.99
  11   4  -6    4.43    1.00
  10  -4  -6    5.23    1.07
  10  -4  -6    4.04    0.97
  10  -4  -6    4.99    1.05
 -10   4   6    6.47    1.13
  10   4  -6    3.24    0.90
  10   4  -6    3.34    0.72
  10   4  -6    4.05    0.93
  10   4  -6    3.41    0.79
   9  -4  -6   12.77    1.45
   9  -4  -6   11.65    1.25
   9  -4  -6   14.90    1.47
   9  -4  -6    9.78    1.43
  -9   4   6   13.64    1.34
   9   4  -6   13.40    1.38
   9   4  -6   12.67    1.26
   9   4  -6   13.92    1.13
   8  -4  -6    1.55    0.53
   8  -4  -6    0.80    0.43
   8  -4  -6    0.11    0.43
   8  -4  -6    0.52    0.47
   8   4  -6    0.39    0.39
   8   4  -6    0.03    0.35
  -8   4   6    0.36    0.44
   8   4  -6    0.78    0.47
   8   4  -6    0.89    0.43
   7  -4  -6    0.36    0.53
   7  -4  -6    1.56    0.48
   7  -4  -6    2.05    0.60
   7  -4  -6    0.92    0.53
   7   4  -6    2.61    0.63
  -7   4   6    1.45    0.51
   7   4  -6    2.22    0.62
   7   4  -6    1.85    0.57
   6  -4  -6    7.70    1.04
   6  -4  -6    6.69    0.94
   6  -4  -6    7.53    1.06
   6  -4  -6    9.09    1.24
   6   4  -6    6.94    0.80
   6   4  -6    7.10    0.78
  -6   4   6    7.57    1.04
  -6   4   6    7.06    1.00
   6   4  -6    9.14    0.90
   6   4  -6    6.07    0.87
   5  -4  -6    0.07    0.23
   5  -4  -6   -0.09    0.23
  -5  -4   6    0.43    0.28
   5  -4  -6    0.48    0.32
   5  -4  -6    0.36    0.41
   5   4  -6   -0.11    0.27
  -5   4   6    0.41    0.29
  -5   4   6    0.17    0.24
   4  -4  -6    0.59    0.32
  -4  -4   6    0.69    0.32
   4  -4  -6    0.55    0.38
   4  -4  -6    1.04    0.44
   4   4  -6    1.37    0.46
  -4   4   6    1.54    0.53
   4   4  -6    0.74    0.37
  -4   4   6    1.14    0.42
   3  -4  -6   59.59    2.39
  -3  -4   6   58.72    2.07
   3  -4  -6   60.10    2.40
   3  -4  -6   58.68    2.23
  -3   4   6   59.67    2.37
   3   4  -6   57.11    2.21
   3   4  -6   59.70    2.25
  -2  -4   6    3.25    0.57
   2  -4  -6    3.26    0.67
   2  -4  -6    3.59    0.57
   2  -4  -6    2.94    0.62
  -2   4   6    3.85    0.72
  -2   4   6    2.71    0.96
   2   4  -6    2.88    0.69
   2   4  -6    3.38    0.38
   1  -4  -6   69.22    2.50
  -1  -4   6   64.10    2.33
   1  -4  -6   72.34    2.45
   1  -4  -6   71.87    2.62
  -1   4   6   68.55    2.35
  -1   4   6   69.49    2.59
   0  -4  -6    5.61    0.86
   0  -4  -6    5.83    0.85
   0  -4  -6    5.83    0.75
   0  -4   6    5.18    0.75
   0   4   6    5.26    0.67
   0   4  -6    5.94    0.86
   0   4   6    3.90    0.70
  -1  -4  -6   19.64    1.35
   1  -4   6   18.91    1.28
  -1  -4  -6   16.63    1.46
  -1  -4  -6   18.29    1.03
   1   4   6   18.31    1.36
  -1   4  -6   19.13    1.31
  -2  -4  -6   11.88    1.11
   2  -4   6   13.04    1.14
  -2  -4  -6   11.16    0.82
  -2  -4  -6   13.73    1.15
  -2   4  -6   13.33    1.17
   2   4   6   11.41    1.14
  -3  -4  -6   27.50    1.72
   3  -4   6   30.66    1.81
  -3  -4  -6   25.93    1.37
   3  -4   6   25.90    1.09
   3   4   6   29.82    1.81
  -3   4  -6   29.68    1.82
  -4  -4  -6    6.68    1.07
  -4  -4  -6    4.63    0.74
   4  -4   6    4.60    0.94
   4  -4   6    5.86    0.75
   4   4   6    5.48    1.01
  -4   4  -6    4.19    0.88
  -5  -4  -6    1.53    0.66
   5  -4   6    0.58    0.48
  -5  -4  -6    0.02    0.25
  -5   4  -6   -0.09    0.36
  -5   4  -6   -0.38    0.30
   5   4   6    0.01    0.42
   6  -4   6   12.21    1.79
  -6   4  -6   11.97    1.22
   6   4   6   13.71    1.49
  -6   4  -6    9.24    1.39
  -7  -4  -6    9.37    1.44
  -7   4  -6    8.77    1.29
   7   4   6   10.38    1.57
  -8   4  -6    4.25    1.18
   8   4   6    5.60    1.95
  -9  -4  -6    0.11    0.67
  -9  -4  -6    0.97    1.00
  -9   4  -6    1.65    0.88
  -9   4  -6    0.03    0.45
   9   4   6    0.89    0.92
  -9   4  -6    1.84    0.78
  12  -5  -6    0.88    0.89
 -12   5   6    1.05    0.66
  12   5  -6   -0.10    0.64
  12   5  -6    1.05    0.78
  11  -5  -6    1.29    1.13
  11  -5  -6    0.17    0.63
 -11   5   6   -0.06    0.39
  11   5  -6   -0.36    0.42
  11   5  -6    1.53    0.63
  11   5  -6   -0.52    0.39
  11   5  -6    1.43    1.14
  10  -5  -6    6.75    1.16
  10  -5  -6    6.86    1.27
  10  -5  -6    5.76    1.16
  10   5  -6    8.87    1.38
 -10   5   6    7.76    1.26
  10   5  -6    7.64    1.20
  10   5  -6    6.31    0.90
  10   5  -6    7.37    1.13
   9  -5  -6    3.44    0.83
   9  -5  -6    5.58    1.13
   9  -5  -6    4.76    1.03
   9  -5  -6    4.96    1.11
   9   5  -6    4.89    0.94
   9   5  -6    3.89    0.72
   9   5  -6    4.26    0.89
  -9   5   6    3.85    0.88
   8  -5  -6   24.36    1.78
   8  -5  -6   19.27    1.61
   8  -5  -6   20.21    1.74
   8  -5  -6   20.12    1.54
   8   5  -6   20.83    1.49
   8   5  -6   21.03    1.49
   8   5  -6   23.46    1.41
   8   5  -6   22.66    1.61
  -8   5   6   21.19    1.62
   7  -5  -6    0.73    0.46
   7  -5  -6    1.25    0.57
   7  -5  -6    1.04    0.45
   7  -5  -6    1.61    0.51
   7   5  -6    0.43    0.34
   7   5  -6    1.52    0.53
   7   5  -6    0.27    0.36
  -7   5   6    0.64    0.43
   7   5  -6    1.27    0.47
   6  -5  -6    1.01    0.50
   6  -5  -6    2.19    0.64
   6  -5  -6    2.33    0.67
   6  -5  -6    1.75    0.55
  -6   5   6    2.90    0.66
   6   5  -6    2.04    0.54
   6   5  -6    2.28    0.54
   6   5  -6    1.53    0.60
   6   5  -6    2.65    0.63
  -6   5   6    2.18    0.66
   5  -5  -6    1.11    0.46
   5  -5  -6    0.42    0.47
   5  -5  -6    1.11    0.45
   5  -5  -6    0.75    0.41
   5  -5  -6    1.03    0.38
   5   5  -6    0.77    0.33
  -5   5   6    0.90    0.45
   5   5  -6    1.26    0.45
   5   5  -6    0.41    0.36
   4  -5  -6   14.40    1.11
   4  -5  -6   14.90    1.20
  -4  -5   6   14.39    0.92
  -4   5   6   13.73    1.12
   4   5  -6   14.35    1.03
   4   5  -6   14.15    1.07
  -4   5   6   11.55    1.06
   3  -5  -6    6.04    0.92
   3  -5  -6    7.67    0.81
  -3  -5   6    7.90    0.70
   3  -5  -6    8.30    0.93
  -3   5   6   11.79    1.56
   3   5  -6    7.73    0.68
  -3   5   6    7.36    0.83
   3   5  -6    7.40    0.77
   2  -5  -6   12.27    0.95
   2  -5  -6   10.96    1.04
   2  -5  -6   12.20    1.05
  -2  -5   6   11.13    0.84
  -2   5   6   12.21    0.98
   2   5  -6   11.94    0.94
  -2   5   6   13.06    1.06
   2   5  -6   10.24    0.63
  -1  -5   6    4.93    0.69
   1  -5  -6    5.68    0.94
   1  -5  -6    4.61    0.79
   1  -5  -6    3.82    0.66
   1   5  -6    4.07    0.68
  -1   5   6    4.65    0.81
  -1   5   6    4.14    0.65
   0  -5   6    0.34    0.30
   0  -5  -6    0.24    0.34
   0  -5  -6    0.40    0.27
   0  -5  -6   -0.18    0.28
   0   5   6   -0.05    0.24
   0   5   6    0.15    0.26
   0   5  -6    0.22    0.32
  -1  -5  -6   16.93    1.28
   1  -5   6   16.26    1.18
  -1  -5  -6   17.75    1.30
  -1  -5  -6   15.25    0.97
   1   5   6   17.05    1.28
  -1   5  -6   16.77    1.24
  -2  -5  -6    0.60    0.46
  -2  -5  -6    0.97    0.44
  -2  -5  -6    0.95    0.35
   2  -5   6    0.99    0.45
   2   5   6    1.39    0.50
  -2   5  -6    0.77    0.48
  -3  -5  -6    0.90    0.31
   3  -5   6    0.84    0.44
  -3  -5  -6    1.33    0.53
  -3  -5  -6    0.90    0.51
  -3   5  -6    2.01    0.67
   3   5   6    1.90    0.67
  -4  -5  -6    5.69    0.98
  -4  -5  -6    5.03    0.53
   4  -5   6    6.59    1.52
  -4   5  -6    5.59    1.07
   4   5   6    6.97    1.13
  -5  -5  -6    2.63    0.71
   5  -5   6    4.07    0.90
   5   5   6    1.90    0.65
  -5   5  -6    1.28    0.52
  -5   5  -6    1.21    0.61
  -6  -5  -6    1.38    0.83
  -6   5  -6    2.65    0.73
  -6   5  -6    2.96    0.89
   6   5   6    1.53    0.69
  -7  -5  -6   -0.43    0.48
  -7   5  -6   -0.25    0.45
   7   5   6   -0.47    0.63
  -7   5  -6    0.99    0.64
  -8  -5  -6    5.36    1.22
  -8   5  -6    3.19    0.86
  -8   5  -6    1.87    0.86
  -8   5  -6    3.28    1.20
   8   5   6    1.27    0.91
  -9  -5  -6    0.46    0.80
  -9   5  -6    0.75    0.84
  -9   5  -6    0.09    0.80
   9   5   6    3.20    1.01
  -9   5  -6    0.85    0.51
  12  -6  -6    1.23    0.72
  12   6  -6    2.00    0.66
 -12   6   6   -0.27    0.43
  12   6  -6   -0.51    0.49
  11  -6  -6   -0.65    0.43
  11   6  -6    0.11    0.43
  11   6  -6   -0.32    0.48
  11   6  -6    0.01    0.49
 -11   6   6   -0.83    0.41
  10  -6  -6    3.39    0.95
  10  -6  -6    2.49    0.91
 -10   6   6    2.48    0.82
  10   6  -6    1.07    0.59
  10   6  -6    2.74    0.76
  10   6  -6    2.88    0.79
  10   6  -6    2.38    0.62
   9  -6  -6    2.26    0.76
   9  -6  -6    0.27    0.62
   9  -6  -6    2.07    0.89
   9   6  -6    2.08    0.55
   9   6  -6    2.32    0.74
  -9   6   6    1.20    0.65
   9   6  -6    0.63    0.54
   8  -6  -6   -0.28    0.45
   8  -6  -6    0.78    0.60
   8  -6  -6    0.50    0.50
   8  -6  -6    1.57    0.57
  -8   6   6    1.20    0.59
   8   6  -6    0.12    0.36
   8   6  -6    0.75    0.53
   8   6  -6    1.76    0.67
   8   6  -6    0.65    0.46
   7  -6  -6    2.06    0.66
   7  -6  -6    3.80    0.86
   7  -6  -6    3.14    0.87
   7  -6  -6    3.77    0.89
   7   6  -6    2.71    0.61
   7   6  -6    2.80    0.61
   7   6  -6    1.92    0.59
  -7   6   6    1.97    0.62
   7   6  -6    4.04    0.76
   6  -6  -6    1.23    0.51
   6  -6  -6    0.40    0.43
   6  -6  -6    0.88    0.62
   6  -6  -6    0.63    0.64
   6  -6  -6    2.10    0.61
  -6   6   6    1.34    0.59
   6   6  -6    1.35    0.53
   6   6  -6    1.77    0.51
  -6   6   6    2.23    0.67
   6   6  -6    0.36    0.41
   6   6  -6    1.27    0.50
   5  -6  -6    0.13    0.36
   5  -6  -6   -0.15    0.31
   5  -6  -6    0.65    0.40
   5  -6  -6    0.46    0.35
   5  -6  -6   -0.13    0.25
  -5   6   6    0.28    0.37
  -5   6   6    0.22    0.35
   5   6  -6    0.00    0.23
   5   6  -6   -0.32    0.25
   5   6  -6    0.31    0.32
   4  -6  -6    9.12    1.00
   4  -6  -6   13.00    1.24
   4  -6  -6   11.57    1.03
  -4  -6   6   12.70    0.84
   4  -6  -6   11.35    1.02
  -4   6   6   11.47    1.05
   4   6  -6   11.62    0.93
  -4   6   6   12.34    1.10
   4   6  -6   11.56    0.99
   3  -6  -6   82.65    2.82
   3  -6  -6   84.25    3.82
   3  -6  -6   80.86    2.94
  -3  -6   6   78.49    2.38
   3   6  -6   77.62    2.55
  -3   6   6   79.87    2.90
   3   6  -6   75.71    2.43
  -3   6   6   79.90    2.80
   2  -6  -6    1.81    0.51
   2  -6  -6    2.14    0.52
   2  -6  -6    1.69    0.51
  -2  -6   6    1.69    0.41
   2   6  -6    2.05    0.37
  -2   6   6    1.87    0.55
  -2   6   6    2.27    0.70
   2   6  -6    1.37    0.44
   1  -6  -6   40.19    2.00
  -1  -6   6   35.48    1.58
   1  -6  -6   38.20    1.86
   1  -6  -6   37.95    2.02
  -1   6   6   36.04    1.99
  -1   6   6   37.69    1.85
   1   6  -6   37.35    1.67
   0  -6  -6    8.95    0.81
   0  -6  -6    8.81    1.01
   0  -6   6    9.16    0.85
   0  -6  -6    9.77    1.00
   0   6   6   11.21    1.06
   0   6   6    8.05    0.80
   0   6  -6    8.25    0.88
  -1  -6  -6    9.17    0.97
   1  -6   6    9.94    0.93
  -1  -6  -6    9.84    0.78
   1   6   6   10.79    1.05
  -1   6  -6   11.25    1.03
   1   6   6   10.16    0.82
   2  -6   6    1.56    0.52
  -2  -6  -6    1.17    0.60
  -2  -6  -6    1.19    0.49
  -2  -6  -6    0.99    0.34
  -2   6  -6    0.33    0.34
   2   6   6    0.90    0.45
  -3  -6  -6    3.52    0.81
  -3  -6  -6    3.06    0.84
   3  -6   6    3.29    0.74
   3  -6   6    3.50    0.47
  -3  -6  -6    3.43    0.53
  -3   6  -6    4.18    0.88
  -4  -6  -6    1.32    0.60
   4  -6   6    1.51    0.67
  -4   6  -6    1.13    0.54
  -4   6  -6    1.09    0.57
   4   6   6    1.21    0.59
   5  -6   6    4.68    1.01
  -5  -6  -6    3.54    0.80
  -5   6  -6    5.51    1.06
  -5   6  -6    2.25    0.76
   5   6   6    6.27    1.12
  -6  -6  -6   -0.39    0.49
  -6   6  -6    1.77    0.83
   6   6   6   -0.60    0.46
  -7   6  -6    0.27    0.59
   7   6   6    1.10    0.76
  -7   6  -6    0.04    0.50
  -8  -6  -6    1.56    0.89
  -8  -6  -6   -0.11    0.64
   8   6   6    0.89    0.70
  -8   6  -6   -0.58    0.50
  -8   6  -6    0.37    0.49
  -8   6  -6   -0.59    0.58
  -9  -6  -6    1.71    0.92
  -9  -6  -6    0.68    1.01
  -9   6  -6    0.44    0.65
  -9   6  -6    0.46    0.82
  -9   6  -6    0.37    0.59
   9   6   6    1.48    1.13
  12  -7  -6    0.27    0.57
 -12   7   6    0.36    0.53
  12   7  -6    0.64    0.78
  12   7  -6    1.57    0.70
  12   7  -6   -0.39    0.43
  11  -7  -6    0.54    0.53
  11   7  -6   -0.63    0.52
  11   7  -6   -0.52    0.36
 -11   7   6    0.54    0.49
  11   7  -6   -0.88    0.48
  10  -7  -6    0.80    0.54
  10   7  -6    1.00    0.55
  10   7  -6   -0.44    0.37
  10   7  -6    0.62    0.54
 -10   7   6    0.57    0.50
  10   7  -6    1.01    0.52
   9  -7  -6    0.22    0.52
   9  -7  -6   -0.37    0.45
   9   7  -6    0.09    0.39
   9   7  -6    0.30    0.41
   9   7  -6    0.10    0.40
   9   7  -6    1.11    0.42
  -9   7   6    0.05    0.38
   8  -7  -6    6.67    1.14
   8  -7  -6    4.28    0.96
   8  -7  -6    6.59    1.49
   8   7  -6    6.93    1.02
   8   7  -6    7.58    1.09
  -8   7   6    7.56    1.23
   8   7  -6    6.76    1.01
   8   7  -6    7.39    0.93
   7  -7  -6    7.71    1.17
   7  -7  -6    4.78    1.07
   7  -7  -6    5.20    0.89
   7  -7  -6    5.51    1.24
   7  -7  -6    7.23    1.89
  -7   7   6    5.66    1.03
   7   7  -6    7.26    0.93
   7   7  -6    6.40    0.89
   6  -7  -6    8.76    1.17
   6  -7  -6    9.71    1.07
   6  -7  -6   10.95    1.21
   6  -7  -6   10.80    1.72
   6  -7  -6    9.68    1.07
   6   7  -6   10.20    0.89
   6   7  -6    9.00    1.06
  -6   7   6   11.44    1.19
  -6   7   6    9.59    1.35
   6   7  -6   10.65    0.99
   5  -7  -6    0.39    0.41
   5  -7  -6    0.65    0.37
   5  -7  -6   -0.04    0.25
   5  -7  -6   -0.25    0.29
   5  -7  -6    1.03    0.59
  -5   7   6    0.75    0.45
   5   7  -6    0.16    0.28
  -5   7   6    0.47    0.39
   5   7  -6    0.14    0.29
   5   7  -6    0.29    0.33
   4  -7  -6   16.50    1.28
   4  -7  -6   16.72    1.25
  -4  -7   6   15.53    0.89
   4  -7  -6   15.83    1.22
   4  -7  -6   16.33    1.45
  -4   7   6   17.22    1.30
  -4   7   6   15.66    1.29
   4   7  -6   15.05    1.04
  -3  -7   6    6.41    0.58
   3  -7  -6    6.51    0.98
   3  -7  -6    6.71    1.08
   3  -7  -6    6.00    0.83
   3   7  -6    7.14    0.69
  -3   7   6    6.69    0.98
  -3   7   6    7.52    1.04
   3   7  -6    7.78    0.76
   2  -7  -6    0.19    0.33
   2  -7  -6   -0.34    0.20
  -2  -7   6   -0.10    0.19
   2  -7  -6    0.31    0.29
  -2   7   6    0.21    0.30
  -2   7   6    0.07    0.25
   1  -7  -6    3.48    0.76
  -1  -7   6    4.06    0.63
   1  -7  -6    5.31    0.84
   1  -7  -6    4.72    0.71
  -1   7   6    4.29    0.78
  -1   7   6    4.35    0.69
   1   7  -6    3.54    0.62
   1   7  -6    3.44    0.37
   0  -7  -6   10.03    1.08
   0  -7  -6    8.67    0.92
   0  -7  -6    9.32    0.98
   0  -7   6    8.23    0.79
   0   7   6    9.77    0.99
   0   7   6    9.20    0.85
   0   7  -6    8.52    0.87
  -1  -7  -6    3.68    0.57
  -1  -7  -6    3.45    0.78
  -1  -7  -6    4.38    0.76
   1  -7   6    3.79    0.72
   1   7   6    4.66    0.67
  -1   7  -6    4.10    0.76
   1   7   6    5.67    0.95
  -2  -7  -6   38.48    2.24
  -2  -7  -6   42.48    2.06
   2  -7   6   37.94    1.95
  -2  -7  -6   40.98    1.55
   2   7   6   42.81    2.16
  -2   7  -6   39.20    2.01
   3  -7   6    1.11    0.31
  -3  -7  -6    1.27    0.51
   3  -7   6    1.31    0.57
  -3  -7  -6    0.96    0.61
  -3  -7  -6    1.17    0.30
  -3   7  -6    0.81    0.48
   3   7   6    0.41    0.49
   4  -7   6    0.69    0.33
   4  -7   6    0.90    0.50
  -4  -7  -6    0.24    0.50
   4   7   6    0.13    0.45
  -4   7  -6    0.71    0.45
  -4   7  -6    0.90    0.53
  -5  -7  -6    1.51    0.68
  -5   7  -6    0.97    0.62
  -5   7  -6    1.50    0.66
   5   7   6    0.39    0.45
  -6  -7  -6   14.83    1.51
  -6   7  -6   14.86    1.63
  -6   7  -6   14.17    2.08
   6   7   6   14.57    1.52
  -7  -7  -6    4.73    1.02
  -7   7  -6    5.15    1.19
  -7   7  -6    4.28    0.96
   7   7   6    4.12    1.02
  -7   7  -6    4.64    1.16
  -8  -7  -6    3.30    1.10
  -8  -7  -6    1.49    1.27
   8   7   6    0.50    0.73
  -8   7  -6    2.54    0.85
  -8   7  -6    0.97    0.84
  -8   7  -6    0.87    0.69
  12  -8  -6   -1.26    0.72
 -12   8   6   -0.08    0.53
  12   8  -6    0.38    0.72
  11  -8  -6    2.71    0.97
 -11   8   6    2.96    0.88
  11   8  -6    1.42    0.80
  11   8  -6    1.88    0.78
  11   8  -6    2.72    0.56
  10  -8  -6   -0.37    0.44
  10   8  -6   -0.35    0.33
  10   8  -6   -0.73    0.38
  10   8  -6    0.57    0.53
 -10   8   6    0.19    0.46
  10   8  -6   -0.04    0.49
   9  -8  -6    0.77    0.64
   9   8  -6    0.05    0.39
   9   8  -6    0.23    0.39
   9   8  -6   -0.22    0.42
  -9   8   6    0.66    0.50
   8  -8  -6   -0.16    0.52
   8  -8  -6    1.82    0.81
   8  -8  -6    2.49    0.75
   8  -8  -6    2.00    0.76
   8   8  -6    0.62    0.39
   8   8  -6    0.66    0.46
   8   8  -6    1.82    0.56
   8   8  -6    1.00    0.46
  -8   8   6    1.25    0.62
   7  -8  -6    1.00    0.57
   7  -8  -6    1.57    0.77
   7  -8  -6    1.79    0.71
   7  -8  -6    2.32    0.71
  -7   8   6    2.29    0.73
   7   8  -6    1.94    0.50
   7   8  -6    1.95    0.58
   7   8  -6    1.37    0.50
   7   8  -6    1.20    0.48
   6  -8  -6    6.50    0.97
   6  -8  -6    7.16    1.14
   6  -8  -6    9.15    1.24
   6  -8  -6    5.13    0.99
   6  -8  -6    5.62    1.05
   6   8  -6    9.10    0.84
  -6   8   6    7.22    1.09
  -6   8   6    7.65    1.15
   6   8  -6    7.47    0.77
   6   8  -6    8.66    0.89
   6   8  -6    7.52    0.83
   5  -8  -6    2.42    0.62
   5  -8  -6    2.24    0.66
   5  -8  -6    1.52    0.68
   5  -8  -6    1.82    0.58
   5  -8  -6    2.95    0.74
  -5   8   6    3.20    0.81
   5   8  -6    2.86    0.54
   5   8  -6    2.81    0.63
   5   8  -6    2.88    0.58
  -5   8   6    3.08    0.70
   4  -8  -6    1.52    0.50
   4  -8  -6    2.09    0.56
   4  -8  -6    1.53    0.49
   4  -8  -6    1.21    0.50
   4  -8  -6    2.12    0.69
   4   8  -6    0.50    0.33
  -4   8   6    1.02    0.55
  -4   8   6    1.04    0.49
   3  -8  -6    2.34    0.67
  -3  -8   6    2.09    0.39
   3  -8  -6    3.00    0.69
   3  -8  -6    1.88    0.62
   3   8  -6    3.04    0.56
   3   8  -6    2.23    0.52
  -3   8   6    3.00    0.64
  -3   8   6    2.45    0.59
  -2  -8   6   10.41    0.72
   2  -8  -6   13.01    1.26
   2  -8  -6   11.83    1.08
   2  -8  -6   12.34    1.08
  -2   8   6   11.64    1.03
  -2   8   6   10.96    1.02
   2   8  -6   10.46    0.86
   1  -8  -6    7.57    0.79
  -1  -8   6    7.44    0.68
   1  -8  -6    7.19    1.03
   1  -8  -6    8.06    1.04
  -1   8   6    7.28    0.98
   1   8  -6    6.69    0.55
   1   8  -6    6.66    0.75
  -1   8   6    8.35    0.86
   0  -8  -6   12.91    1.29
   0  -8   6   12.13    0.93
   0  -8  -6   11.11    0.89
   0  -8  -6   12.10    1.07
   0   8   6   12.95    1.14
   0   8  -6   11.17    0.98
   0   8   6   11.50    0.99
  -1  -8  -6   11.56    1.08
   1  -8   6   11.48    0.99
  -1  -8  -6   12.99    0.91
  -1  -8  -6   12.25    1.29
   1   8   6   12.08    1.15
  -1   8  -6   10.86    1.03
   1   8   6   10.37    0.86
  -2  -8  -6    0.15    0.24
   2  -8   6   -0.10    0.29
   2  -8   6    0.09    0.20
  -2  -8  -6    0.11    0.32
  -2  -8  -6    0.72    0.57
   2   8   6   -0.03    0.35
  -2   8  -6   -0.14    0.30
  -3  -8  -6    3.35    0.74
  -3  -8  -6    4.16    0.52
   3  -8   6    4.56    0.51
  -3  -8  -6    4.84    1.07
   3  -8   6    5.64    0.94
  -3   8  -6    3.57    0.78
  -3   8  -6    2.42    0.66
   3   8   6    5.06    0.98
   4  -8   6    0.34    0.28
  -4  -8  -6   -0.08    0.41
  -4  -8  -6   -0.18    0.41
  -4   8  -6    0.13    0.37
   4   8   6    1.11    0.60
  -4   8  -6    0.09    0.35
  -5  -8  -6    2.85    0.79
  -5   8  -6    3.56    0.93
   5   8   6    1.92    0.69
  -5   8  -6    2.12    0.80
  -6  -8  -6    5.87    1.13
  -6   8  -6    4.21    1.09
  -6   8  -6    4.20    0.98
   6   8   6    5.07    1.26
  -7  -8  -6   -0.33    0.59
   7   8   6    1.51    0.71
  -7   8  -6    0.86    0.77
  -7   8  -6    1.21    0.71
  -7   8  -6    0.80    0.61
  -8  -8  -6    2.22    0.94
  -8  -8  -6   -0.58    0.84
  -8   8  -6    0.40    0.68
   8   8   6    0.89    0.75
  -8   8  -6    0.42    0.57
  -8   8  -6    0.37    0.66
  11  -9  -6    5.31    1.32
  11   9  -6    4.26    1.05
 -11   9   6    6.99    1.46
  11   9  -6    4.67    0.70
  11   9  -6    4.49    0.95
  10  -9  -6    0.85    0.78
  10  -9  -6    0.92    0.58
  10   9  -6    0.30    0.50
  10   9  -6    1.53    0.54
  10   9  -6    0.11    0.43
 -10   9   6    1.01    0.64
   9  -9  -6    0.07    0.59
   9  -9  -6    0.12    0.48
   9   9  -6    0.44    0.44
  -9   9   6    0.66    0.48
   9   9  -6    0.54    0.41
   9   9  -6   -0.02    0.35
   9   9  -6   -0.66    0.37
   8  -9  -6    0.23    0.50
   8   9  -6    0.87    0.45
   8   9  -6    0.75    0.44
  -8   9   6    1.88    0.79
   8   9  -6    0.96    0.50
   8   9  -6    1.66    0.53
   7  -9  -6    7.13    1.15
   7  -9  -6    9.42    1.37
   7  -9  -6    9.23    1.65
   7   9  -6    9.82    0.97
   7   9  -6    8.78    0.94
   7   9  -6   11.65    1.01
  -7   9   6   10.43    1.46
   7   9  -6   10.00    0.96
   6  -9  -6    0.21    0.40
   6  -9  -6    0.57    0.49
   6  -9  -6    0.27    0.51
   6  -9  -6    0.33    0.45
   6  -9  -6    0.80    0.54
  -6   9   6   -0.19    0.35
   6   9  -6    0.79    0.39
   6   9  -6    0.82    0.45
   6   9  -6    0.14    0.31
   6   9  -6    0.83    0.45
   5  -9  -6    2.33    0.68
   5  -9  -6    1.65    0.63
   5  -9  -6    1.88    0.78
   5  -9  -6    1.91    0.61
   5   9  -6    1.55    0.46
   5   9  -6    1.06    0.38
   5   9  -6    2.03    0.50
  -5   9   6    1.80    0.65
  -5   9   6    0.94    0.52
   4  -9  -6    0.01    0.30
   4  -9  -6   -0.03    0.29
   4  -9  -6    0.49    0.48
   4  -9  -6   -0.45    0.26
   4  -9  -6    0.45    0.36
  -4   9   6   -0.24    0.27
  -4   9   6   -0.45    0.26
   4   9  -6    0.75    0.35
   3  -9  -6   -0.25    0.31
   3  -9  -6    0.35    0.51
   3  -9  -6    0.09    0.37
   3  -9  -6   -0.30    0.29
  -3   9   6    0.37    0.39
   3   9  -6    0.38    0.33
  -3   9   6    0.01    0.36
  -2  -9   6    2.10    0.39
   2  -9  -6    3.28    0.71
   2  -9  -6    2.67    0.84
   2  -9  -6    2.15    0.58
   2   9  -6    3.23    0.58
   2   9  -6    2.27    0.49
  -2   9   6    3.21    0.72
  -2   9   6    4.68    0.86
   1  -9  -6   34.53    1.78
   1  -9  -6   31.65    2.06
   1  -9  -6   32.60    1.63
   1   9  -6   30.67    1.50
  -1   9   6   35.26    1.85
   1   9  -6   32.24    1.32
  -1   9   6   33.11    1.66
   0  -9   6    5.64    0.55
   0  -9  -6    8.59    1.39
   0  -9  -6    6.60    0.76
   0  -9  -6    6.66    0.95
   0  -9   6    6.85    0.69
   0   9   6    5.48    0.88
   0   9   6    5.55    0.96
   0   9  -6    6.94    0.94
  -1  -9  -6   10.07    1.12
  -1  -9  -6   10.80    1.51
   1  -9   6    9.76    0.92
  -1  -9  -6   11.18    1.06
   1  -9   6   10.14    0.66
   1   9   6   11.86    1.16
  -1   9  -6   11.37    1.04
   1   9   6   11.84    0.92
  -2  -9  -6    0.47    0.37
   2  -9   6    0.82    0.45
  -2  -9  -6    0.69    0.57
  -2  -9  -6    0.82    0.33
   2  -9   6    0.70    0.29
  -2   9  -6    0.61    0.49
   2   9   6    1.28    0.57
   2   9   6    1.14    0.38
   3  -9   6    0.66    0.46
   3  -9   6   -0.05    0.30
  -3  -9  -6    0.83    0.52
  -3  -9  -6    0.01    0.57
  -3   9  -6   -0.19    0.41
   3   9   6    0.71    0.50
  -3   9  -6    0.29    0.47
   4  -9   6    0.14    0.26
  -4  -9  -6   -0.41    0.43
  -4  -9  -6    0.34    0.43
  -4   9  -6   -0.56    0.31
   4   9   6    0.25    0.44
   5  -9   6    2.65    0.64
  -5  -9  -6    2.84    0.77
  -5   9  -6    1.92    0.66
  -5   9  -6    0.61    0.59
   6  -9   6    3.13    0.96
  -6  -9  -6    2.37    0.77
  -6   9  -6    1.65    0.72
  -6   9  -6    3.71    1.02
   6   9   6    4.12    0.94
  -6   9  -6    3.63    1.00
   7  -9   6    6.00    1.01
  -7  -9  -6    4.28    1.08
  -7   9  -6    6.42    1.31
  -7   9  -6    6.03    1.17
  -7   9  -6    4.34    1.22
   7   9   6    4.69    1.05
  -8  -9  -6   -0.87    0.65
   8  -9   6    0.39    0.62
  -8   9  -6   -0.50    0.55
  -8   9  -6    0.48    0.71
   8   9   6    0.17    0.76
  -8   9  -6   -0.34    0.61
  11 -10  -6    0.36    0.72
  11 -10  -6    0.30    0.67
  11  10  -6    1.35    0.67
 -11  10   6   -0.60    0.39
  11  10  -6    0.97    0.44
  11  10  -6    0.26    0.56
  10 -10  -6    0.23    0.64
  10 -10  -6    0.19    0.62
  10  10  -6   -0.10    0.50
 -10  10   6    1.24    0.60
  10  10  -6    0.09    0.57
  10  10  -6   -0.03    0.35
   9 -10  -6    5.73    1.49
   9 -10  -6    2.72    0.90
   9  10  -6    2.67    0.68
   9  10  -6    3.30    0.66
   9  10  -6    4.66    0.87
  -9  10   6    3.77    0.89
   8 -10  -6   -0.61    0.45
   8 -10  -6   -0.23    0.50
   8  10  -6   -0.44    0.34
  -8  10   6   -0.50    0.31
   8  10  -6   -0.04    0.37
   8  10  -6   -0.46    0.33
   8  10  -6   -0.25    0.35
   7 -10  -6   23.01    2.11
   7 -10  -6   21.12    1.78
   7  10  -6   19.43    1.27
  -7  10   6   21.01    1.78
   7  10  -6   18.97    1.34
   7  10  -6   22.55    1.38
   7  10  -6   18.54    1.24
   6 -10  -6   14.86    1.61
   6 -10  -6   19.40    1.53
   6 -10  -6   17.59    1.55
   6 -10  -6   18.66    1.88
   6 -10  -6   17.10    1.43
   6  10  -6   17.83    1.11
   6  10  -6   15.63    1.07
   6  10  -6   17.06    1.14
   6  10  -6   17.03    1.29
  -6  10   6   18.76    1.60
   5 -10  -6    1.23    0.56
   5 -10  -6    1.63    0.56
   5 -10  -6    1.30    0.60
   5 -10  -6    1.06    0.60
   5 -10  -6    2.38    0.65
   5  10  -6    1.55    0.42
   5  10  -6    1.04    0.39
   5  10  -6    1.35    0.41
  -5  10   6    1.67    0.64
  -5  10   6    1.61    0.58
   4 -10  -6    9.38    1.07
   4 -10  -6   12.76    1.82
   4 -10  -6    7.59    1.24
   4 -10  -6   10.93    1.08
   4 -10  -6   10.69    1.06
   4  10  -6   10.87    0.83
  -4  10   6   10.91    1.13
  -4  10   6   12.12    1.23
   3 -10  -6   38.72    1.76
   3 -10  -6   32.27    1.76
   3 -10  -6   32.78    2.22
   3 -10  -6   33.28    1.85
   3 -10  -6   36.02    1.92
   3  10  -6   34.02    1.46
  -3  10   6   37.60    1.98
  -3  10   6   36.80    1.99
   2 -10  -6    1.10    0.65
   2 -10  -6    0.98    0.43
   2 -10  -6    0.92    0.41
   2  10  -6    0.99    0.38
  -2  10   6    1.10    0.47
   2  10  -6    0.69    0.32
  -2  10   6    0.72    0.43
  -1 -10   6    7.62    0.64
   1 -10  -6    8.30    0.88
   1 -10  -6    9.67    0.97
   1 -10  -6   10.43    1.55
  -1  10   6    9.45    1.02
  -1  10   6    9.16    1.09
   1  10  -6    8.53    0.75
   1  10  -6    7.71    0.79
   0 -10  -6    0.34    0.31
   0 -10   6    0.38    0.31
   0 -10  -6   -0.04    0.39
   0 -10   6   -0.33    0.19
   0  10   6   -0.15    0.27
   0  10  -6   -0.31    0.27
   0  10   6   -0.08    0.35
  -1 -10  -6   53.77    2.02
   1 -10   6   49.14    2.21
   1 -10   6   51.80    1.78
  -1 -10  -6   49.56    2.79
   1  10   6   52.05    2.41
   1  10   6   55.80    2.15
  -1  10  -6   51.70    2.22
  -2 -10  -6   21.33    1.92
   2 -10   6   19.31    1.38
  -2 -10  -6   20.19    1.10
  -2 -10  -6   18.74    1.49
   2 -10   6   22.33    1.09
   2  10   6   22.00    1.57
   2  10   6   23.65    1.21
  -2  10  -6   23.41    1.55
  -2  10  -6   20.98    1.69
   3 -10   6   -0.13    0.22
  -3 -10  -6   -0.12    0.53
  -3 -10  -6   -0.37    0.19
   3  10   6   -0.44    0.34
  -3  10  -6   -0.10    0.35
  -3  10  -6    0.20    0.46
  -4 -10  -6    1.13    0.78
  -4 -10  -6    1.68    0.57
   4 -10   6    2.16    0.52
  -4  10  -6    2.56    0.79
  -4  10  -6    1.57    0.69
   4  10   6    1.68    0.68
   5 -10   6    3.39    0.68
  -5 -10  -6    3.75    0.87
  -5  10  -6    2.24    0.79
   5  10   6    3.93    0.95
  -5  10  -6    2.69    0.82
   6 -10   6    0.13    0.37
  -6 -10  -6   -0.90    0.44
  -6  10  -6    0.33    0.53
   6  10   6   -0.26    0.50
  -6  10  -6    0.53    0.65
  -6  10  -6    1.07    0.62
  -7 -10  -6    6.74    1.26
   7 -10   6    5.67    0.96
  -7  10  -6    3.81    1.02
  -7  10  -6    4.22    1.21
   7  10   6    2.15    1.77
  -7  10  -6    5.43    1.13
  11 -11  -6   -0.42    0.73
  11 -11  -6    0.14    0.57
  11  11  -6    0.91    0.61
 -11  11   6   -0.80    0.91
  10 -11  -6    2.34    0.97
  10 -11  -6    0.40    0.67
  10  11  -6    1.71    0.54
  10  11  -6    1.46    0.60
  10  11  -6    0.33    0.57
 -10  11   6    2.28    0.87
   9 -11  -6    0.06    0.57
   9 -11  -6    2.41    0.88
   9  11  -6    1.94    0.57
  -9  11   6    1.24    0.67
   9  11  -6    1.32    0.61
   9  11  -6    1.78    0.49
   8 -11  -6   -0.53    0.40
   8 -11  -6    0.30    0.85
   8  11  -6    0.38    0.36
   8  11  -6   -0.20    0.34
   8  11  -6    0.38    0.40
  -8  11   6    0.91    0.58
   8  11  -6   -0.07    0.37
   7 -11  -6    3.84    1.02
   7 -11  -6    3.90    1.20
   7  11  -6    4.13    0.82
  -7  11   6    5.90    1.12
   7  11  -6    4.08    0.72
   7  11  -6    4.09    0.66
   7  11  -6    4.10    0.73
   6 -11  -6    1.22    0.76
   6  11  -6    1.08    0.39
   6  11  -6    2.04    0.47
   6  11  -6    1.09    0.42
  -6  11   6    1.25    0.68
   6  11  -6    1.62    0.54
   5 -11  -6    6.12    1.18
   5 -11  -6    9.45    1.27
   5 -11  -6    6.42    0.98
   5 -11  -6    7.62    1.11
   5  11  -6    9.06    0.74
  -5  11   6    7.22    1.15
   5  11  -6    8.27    0.72
  -5  11   6    8.31    1.28
   5  11  -6    9.06    0.77
   4 -11  -6    1.54    0.56
   4 -11  -6    1.41    0.51
   4 -11  -6    1.35    0.75
   4 -11  -6    2.13    0.67
   4 -11  -6    0.92    0.41
  -4  11   6    0.51    0.39
  -4  11   6    1.03    0.53
   4  11  -6    1.30    0.38
   3 -11  -6   15.76    1.23
   3 -11  -6   17.23    1.33
   3 -11  -6   16.77    1.66
   3 -11  -6   14.17    1.16
   3 -11  -6   16.08    1.32
  -3  11   6   16.02    1.37
   3  11  -6   15.53    0.94
  -3  11   6   15.98    1.33
   2 -11  -6    3.33    0.70
   2 -11  -6    2.14    0.80
   2 -11  -6    2.15    0.77
   2 -11  -6    2.38    0.57
  -2  11   6    2.28    0.63
   2  11  -6    2.42    0.50
  -1 -11   6    0.36    0.34
   1 -11  -6    0.15    0.31
   1 -11  -6    0.25    0.54
   1  11  -6    0.21    0.32
  -1  11   6    0.59    0.41
  -1  11   6    0.47    0.39
   1  11  -6    0.46    0.35
   0 -11   6    3.04    0.52
   0 -11  -6    3.10    0.67
   0 -11   6    3.10    0.60
   0 -11  -6    3.11    0.86
   0 -11  -6    3.44    0.64
   0  11   6    3.38    0.77
   0  11  -6    3.55    0.68
   0  11   6    2.57    0.63
   1 -11   6   10.82    0.91
   1 -11   6    9.07    0.78
  -1 -11  -6    9.23    0.84
  -1 -11  -6    6.98    1.38
   1  11   6   10.02    1.11
  -1  11  -6   10.02    1.01
  -2 -11  -6    0.28    0.27
   2 -11   6    0.52    0.32
   2 -11   6    0.01    0.34
  -2 -11  -6    0.58    0.61
   2  11   6    0.31    0.28
  -2  11  -6    0.64    0.43
   2  11   6   -0.14    0.38
  -2  11  -6    0.09    0.32
  -3 -11  -6    5.04    1.25
   3 -11   6    6.09    0.67
  -3  11  -6    5.71    0.98
  -3  11  -6    6.37    1.13
   3  11   6    6.90    1.11
   4 -11   6    1.40    0.59
  -4 -11  -6    1.09    0.77
  -4 -11  -6    2.03    0.62
  -4  11  -6    1.66    0.66
  -4  11  -6    1.30    0.60
   4  11   6    3.18    0.89
   5 -11   6    8.20    1.06
  -5  11  -6   10.18    1.52
  -5  11  -6    7.40    1.21
   5  11   6    8.56    1.39
  -5  11  -6    8.96    1.48
   6 -11   6    9.28    1.02
  -6  11  -6    8.57    1.41
  -6  11  -6    6.77    1.22
   6  11   6   10.58    1.57
  -6  11  -6   10.48    1.73
  -7 -11  -6    0.08    0.57
   7 -11   6    2.09    0.69
  -7 -11  -6    1.20    0.76
  -7  11  -6   -0.13    0.68
   7  11   6   -1.65    0.66
  -7  11  -6   -0.31    0.56
  -7  11  -6    0.38    0.52
  10 -12  -6    1.21    0.74
  10 -12  -6    1.25    0.85
  10  12  -6    1.32    0.56
  10  12  -6    1.27    0.47
  10  12  -6    0.61    0.54
 -10  12   6   -0.13    0.48
   9 -12  -6   23.15    2.07
   9 -12  -6   24.58    2.50
   9  12  -6   22.28    1.37
   9  12  -6   23.56    1.59
   9  12  -6   23.76    1.54
  -9  12   6   22.99    2.11
   8 -12  -6    5.97    1.52
   8 -12  -6    4.05    1.13
   8  12  -6    5.45    0.79
   8  12  -6    6.51    0.94
  -8  12   6    6.43    1.31
   8  12  -6    5.34    0.84
   7 -12  -6    2.08    0.80
   7 -12  -6    2.25    0.91
  -7  12   6    1.45    0.70
   7  12  -6    1.96    0.65
   7  12  -6    2.11    0.87
   7  12  -6    3.56    0.59
   6 -12  -6    4.72    1.28
   6 -12  -6    5.89    1.13
   6  12  -6    5.18    0.68
   6  12  -6    4.47    0.62
   6  12  -6    6.46    0.98
   6  12  -6    6.56    0.71
  -6  12   6    6.31    1.22
   5 -12  -6    0.14    0.48
   5 -12  -6    0.64    0.46
   5  12  -6    0.22    0.28
   5  12  -6    0.57    0.33
  -5  12   6    1.11    0.61
  -5  12   6    0.37    0.48
   4 -12  -6    1.38    0.65
   4 -12  -6    0.81    0.46
   4 -12  -6    0.73    0.48
   4 -12  -6    1.86    0.70
  -4  12   6   -0.06    0.43
  -4  12   6    1.69    0.70
   4  12  -6    0.48    0.29
   3 -12  -6   10.36    1.65
   3 -12  -6   11.97    1.22
   3 -12  -6   13.87    1.31
   3 -12  -6   12.91    1.13
  -3  12   6   15.26    1.32
   3  12  -6   11.52    0.79
  -3  12   6   12.05    1.26
   2 -12  -6    0.54    0.41
   2 -12  -6    1.56    0.48
   2 -12  -6    1.29    0.78
  -2  12   6    0.60    0.50
  -2  12   6    0.91    0.44
   2  12  -6    1.66    0.41
   1 -12  -6   75.17    3.66
  -1 -12   6   72.86    2.69
   1 -12  -6   73.85    2.82
  -1  12   6   71.55    2.89
  -1  12   6   74.51    2.87
   1  12  -6   72.30    2.40
   0 -12   6    7.47    0.80
   0 -12  -6    9.09    1.04
   0 -12  -6    7.82    0.88
   0 -12  -6    4.77    1.07
   0 -12   6    8.13    0.67
   0  12   6    8.58    0.92
   0  12   6    7.01    1.10
   0  12  -6    7.08    0.93
  -1 -12  -6   24.25    1.38
   1 -12   6   22.51    1.31
   1 -12   6   23.65    1.30
  -1 -12  -6   26.73    2.21
  -1 -12  -6   22.50    1.44
   1  12   6   23.00    1.37
  -1  12  -6   25.27    1.50
  -1  12  -6   19.34    1.71
   1  12   6   24.75    1.62
  -2 -12  -6   -0.17    0.32
   2 -12   6   -0.01    0.30
  -2 -12  -6    0.02    0.27
  -2 -12  -6    0.10    0.51
  -2  12  -6    0.29    0.37
  -2  12  -6    0.74    0.51
   2  12   6    0.10    0.41
   2  12   6    0.30    0.45
  -3 -12  -6    0.96    0.71
  -3 -12  -6    0.33    0.43
   3 -12   6    1.11    0.47
   3  12   6    0.61    0.52
  -3  12  -6    1.42    0.61
  -3  12  -6    0.56    0.52
  -4 -12  -6   -0.21    0.56
  -4 -12  -6   -0.15    0.36
   4 -12   6   -0.28    0.30
  -4  12  -6   -0.28    0.36
   4  12   6   -0.88    0.43
  -4  12  -6   -0.15    0.45
  -4  12  -6   -0.34    0.31
  -5 -12  -6    6.35    1.09
  -5  12  -6    6.55    1.20
  -5  12  -6    6.76    1.21
   5  12   6    6.64    1.12
  -5  12  -6    5.18    1.07
   6 -12   6    0.98    0.52
  -6  12  -6    0.05    0.54
  -6  12  -6    0.74    0.60
   6  12   6    0.09    0.70
  -6  12  -6    1.05    0.80
  -7 -12  -6    2.12    1.05
   7 -12   6    2.43    0.75
  -7  12  -6    0.21    0.69
   7  12   6    4.97    1.50
  -7  12  -6    4.35    1.20
  -7  12  -6    2.06    0.74
  10 -13  -6    0.74    0.81
  10 -13  -6    0.42    0.69
  10  13  -6    0.34    0.42
  10  13  -6   -0.35    0.54
 -10  13   6    0.83    0.65
   9 -13  -6    2.25    1.08
   9 -13  -6    1.29    0.89
   9  13  -6    1.19    0.43
   9  13  -6    3.10    0.61
  -9  13   6    1.02    0.71
   9  13  -6    2.19    0.61
   8 -13  -6    1.27    0.76
   8 -13  -6    0.31    0.67
   8  13  -6    1.39    0.52
   8  13  -6    0.77    0.45
  -8  13   6    0.19    0.63
   8  13  -6   -0.43    0.41
   7 -13  -6    0.00    0.53
   7 -13  -6   -0.19    0.41
   7  13  -6   -1.01    0.34
  -7  13   6   -0.29    0.41
   7  13  -6   -0.49    0.28
   7  13  -6    0.20    0.34
   6 -13  -6    0.51    0.55
   6 -13  -6    0.36    0.50
  -6  13   6    0.09    0.48
   6  13  -6    0.86    0.33
   6  13  -6   -0.58    0.35
   5 -13  -6    7.18    1.65
   5 -13  -6    4.99    1.01
   5  13  -6    4.88    0.52
  -5  13   6    3.89    0.95
   4 -13  -6    5.90    1.02
   4 -13  -6    2.64    0.91
   4  13  -6    4.02    0.46
  -4  13   6    4.86    1.03
  -4  13   6    6.87    1.14
   3 -13  -6    7.21    1.13
   3 -13  -6    8.95    1.59
  -3  13   6    6.47    1.04
  -3  13   6    7.06    1.10
   2 -13  -6    1.52    0.82
   2 -13  -6    2.17    0.72
  -2  13   6    2.14    0.58
  -2  13   6    1.94    0.64
   2  13  -6    2.91    0.50
  -1 -13   6    0.14    0.33
   1 -13  -6    0.11    0.32
   1 -13  -6   -0.62    0.25
   1 -13  -6    0.58    0.62
   1  13  -6    0.03    0.27
  -1  13   6    0.14    0.38
  -1  13   6    0.08    0.36
   0 -13   6    2.66    0.62
   0 -13  -6    1.92    0.84
   0 -13  -6    1.65    0.49
   0 -13  -6    4.28    0.76
   0  13  -6    2.33    0.55
   0  13   6    3.48    0.75
   0  13  -6    2.28    0.76
   0  13   6    4.32    0.80
  -1 -13  -6   -0.08    0.33
  -1 -13  -6    0.96    0.46
   1 -13   6    0.41    0.37
   1 -13   6    0.32    0.35
  -1 -13  -6    0.61    0.58
   1  13   6    0.48    0.41
  -1  13  -6    0.82    0.54
   1  13   6    0.83    0.43
  -2 -13  -6    3.25    0.60
   2 -13   6    4.86    0.77
  -2 -13  -6    3.10    1.07
  -2 -13  -6    1.97    0.61
  -2  13  -6    3.70    0.80
  -2  13  -6    2.59    0.84
   2  13   6    4.55    0.70
   2  13   6    4.75    0.90
  -3 -13  -6   11.94    1.11
  -3 -13  -6    9.50    1.61
   3 -13   6   10.95    0.98
  -3  13  -6   11.77    1.23
   3  13   6   14.21    1.39
  -3  13  -6   11.78    1.62
  -3  13  -6   11.71    1.25
   4 -13   6    8.33    0.92
  -4 -13  -6    8.86    1.11
  -4 -13  -6    7.62    1.51
   4  13   6    9.08    1.30
  -4  13  -6    9.65    1.56
  -4  13  -6   11.17    1.28
  -4  13  -6    8.70    1.32
   5 -13   6    2.08    0.61
  -5 -13  -6    1.93    0.68
   5  13   6    0.58    0.64
  -5  13  -6    1.02    0.62
  -5  13  -6    2.49    0.84
  -5  13  -6    1.63    0.68
   6 -13   6    0.66    0.50
  -6 -13  -6    0.15    0.60
  -6 -13  -6   -0.11    1.08
   6  13   6    0.93    0.70
  -6  13  -6   -0.14    0.45
  -6  13  -6    0.07    0.45
  -6  13  -6    0.14    0.63
   9 -14  -6    2.18    1.14
   9  14  -6    1.56    0.52
   9  14  -6    2.05    0.56
  -9  14   6    1.49    0.95
   9  14  -6    1.54    0.66
   8 -14  -6    0.40    0.67
   8  14  -6    0.86    0.42
  -8  14   6    0.74    0.58
   8  14  -6    0.47    0.36
   7 -14  -6    0.31    0.50
   7 -14  -6    0.86    0.69
   7  14  -6   -0.26    0.46
  -7  14   6    1.57    0.70
   6 -14  -6    0.36    0.46
   6 -14  -6    0.01    0.57
   6  14  -6   -0.49    0.60
  -6  14   6    0.06    0.49
   5 -14  -6    0.86    0.52
   5 -14  -6   -0.15    0.51
  -5  14   6    0.02    0.49
   4 -14  -6   -0.54    0.24
  -4  14   6    0.98    0.53
  -4  14   6    0.13    0.48
   3 -14  -6    0.24    0.52
   3 -14  -6    1.17    0.59
  -3  14   6   -0.60    0.34
  -3  14   6    0.28    0.39
   2 -14  -6    2.65    0.63
   2 -14  -6    1.21    0.66
   2 -14  -6    1.51    0.58
  -2  14   6    1.47    0.54
   2  14  -6    2.20    0.77
  -2  14   6    2.79    0.73
   1 -14  -6    1.56    0.61
   1 -14  -6    2.21    0.56
   1 -14  -6    2.73    1.03
  -1 -14   6    2.42    0.66
  -1  14   6    2.04    0.66
  -1  14   6    1.14    0.54
   1  14  -6    2.47    0.52
   1  14  -6    1.53    0.97
   0 -14  -6    3.22    0.64
   0 -14  -6    1.60    0.87
   0 -14  -6    2.19    0.58
   0  14   6    2.36    0.62
   0  14  -6    1.58    0.72
   0  14   6    3.09    0.72
   0  14  -6    2.05    0.60
  -1 -14  -6   -0.16    0.35
  -1 -14  -6   -0.33    0.29
  -1 -14  -6   -0.23    0.46
   1 -14   6   -0.34    0.32
  -1  14  -6    0.53    0.55
   1  14   6    0.50    0.42
   1  14   6    0.47    0.35
  -1  14  -6    0.09    0.37
   2 -14   6    0.91    0.45
  -2 -14  -6    0.52    0.35
  -2 -14  -6    0.17    0.61
  -2 -14  -6   -0.44    0.33
   2  14   6    0.22    0.32
  -2  14  -6    0.35    0.40
   2  14   6   -0.02    0.47
  -2  14  -6    1.61    0.56
  -2  14  -6    0.09    0.42
   3 -14   6    3.06    0.91
  -3 -14  -6    2.29    0.92
  -3 -14  -6    2.85    0.66
  -3  14  -6    3.83    0.84
  -3  14  -6    2.59    0.76
   3  14   6    4.69    0.92
  -3  14  -6    4.06    1.10
  -4 -14  -6    9.12    1.76
  -4 -14  -6   10.50    1.11
   4 -14   6    9.68    1.01
  -4  14  -6    8.97    1.40
  -4  14  -6    9.75    1.53
   4  14   6    8.41    1.27
  -4  14  -6    8.42    1.35
   5 -14   6    5.27    0.95
  -5 -14  -6    3.44    0.83
   5  14   6    5.06    0.95
  -5  14  -6    4.08    1.02
  -5  14  -6    5.53    1.08
  -5  14  -6    3.01    1.01
   8 -15  -6    1.04    0.82
   8 -15  -6    0.82    0.78
   8  15  -6    1.85    0.62
  -8  15   6    1.23    0.82
   8  15  -6    0.70    0.59
   7 -15  -6    3.82    1.30
   7 -15  -6    4.77    1.11
  -7  15   6    5.10    1.07
   7  15  -6    3.51    1.08
   7  15  -6    4.26    0.83
   6 -15  -6    0.58    0.57
   6 -15  -6   -0.19    0.65
  -6  15   6    0.22    0.51
   5 -15  -6   -0.73    0.31
   5 -15  -6   -0.05    0.47
  -5  15   6   -0.27    0.39
   4 -15  -6    0.93    0.70
   4  15  -6    0.36    0.45
  -4  15   6    1.27    0.54
  -4  15   6    0.15    0.43
   3 -15  -6    3.64    1.22
   3 -15  -6    3.88    0.81
   3  15  -6    2.79    0.83
  -3  15   6    5.06    1.06
  -3  15   6    3.26    0.76
   2 -15  -6   12.36    1.11
   2 -15  -6   11.19    1.22
   2 -15  -6   13.13    2.12
  -2  15   6   10.51    1.34
  -2  15   6   11.54    1.51
   2  15  -6   10.58    1.41
  -1 -15   6    1.81    0.66
   1 -15  -6    2.27    1.07
   1 -15  -6    1.13    0.48
   1 -15  -6    1.22    0.56
   1  15  -6    1.64    0.41
  -1  15   6    1.63    0.59
   1  15  -6    1.12    0.63
   1  15  -6    1.82    0.43
  -1  15   6    1.38    0.59
   0 -15   6    7.15    1.11
   0 -15  -6    8.63    1.14
   0 -15  -6    7.39    1.54
   0 -15  -6    7.88    0.89
   0  15  -6   10.19    0.90
   0  15   6    7.46    1.14
   0  15  -6    9.01    0.88
   0  15   6    8.17    0.94
   0  15  -6    7.12    1.33
   1 -15   6    2.33    0.69
  -1 -15  -6    1.10    0.72
  -1 -15  -6    1.96    0.59
  -1 -15  -6    2.37    0.61
   1  15   6    2.80    0.64
  -1  15  -6    2.53    0.65
   1  15   6    2.48    0.66
  -1  15  -6    3.71    0.70
  -1  15  -6    2.46    0.86
   2 -15   6    0.48    0.39
  -2 -15  -6    0.38    0.76
   2 -15   6   -0.03    0.33
  -2  15  -6    0.03    0.45
   2  15   6   -0.47    0.47
  -2  15  -6   -0.11    0.38
   2  15   6    0.64    0.36
  -2  15  -6   -0.34    0.30
  -3 -15  -6    1.17    0.84
  -3 -15  -6    2.18    0.71
   3 -15   6    0.42    0.46
  -3  15  -6    0.50    0.47
  -3  15  -6   -0.06    0.72
  -3  15  -6    0.72    0.47
   3  15   6    1.90    0.61
  -4 -15  -6   -0.32    0.62
   4 -15   6   -0.36    0.38
  -4 -15  -6    0.56    0.55
  -4  15  -6    0.16    0.47
   4  15   6   -1.28    0.41
  -4  15  -6   -0.16    0.43
  -4  15  -6    0.86    0.81
  -5 -15  -6    4.70    0.93
   5 -15   6    1.72    0.67
  -5 -15  -6    4.19    1.34
  -5 -15  -6    3.14    0.88
   5  15   6    3.18    1.03
  -5  15  -6    1.74    0.91
  -5  15  -6    4.05    1.24
  -5  15  -6    2.35    0.80
   7 -16  -6    2.06    0.90
   7 -16  -6    3.91    1.26
  -7  16   6    2.26    0.86
   6 -16  -6    1.87    0.99
  -6  16   6    0.62    0.59
   6  16  -6    2.46    0.69
   5 -16  -6   -0.12    0.48
  -5  16   6   -0.51    0.46
   4 -16  -6    2.07    1.15
   4 -16  -6    0.41    0.52
  -4  16   6    1.28    0.69
   4  16  -6   -0.36    0.46
   3 -16  -6   -1.06    0.34
   3 -16  -6   -0.15    0.42
  -3  16   6    0.08    0.44
  -3  16   6    0.43    0.44
   3  16  -6   -0.41    0.36
   2 -16  -6    4.95    0.83
   2 -16  -6    4.92    1.27
   2  16  -6    6.00    1.10
  -2  16   6    4.97    0.93
  -2  16   6    5.70    1.13
   1 -16  -6    0.63    0.69
   1 -16  -6    0.69    0.49
   1 -16  -6    0.96    0.50
  -1 -16   6    0.05    0.45
   1  16  -6    0.53    0.57
  -1  16   6    1.08    0.54
  -1  16   6    0.29    0.51
   1  16  -6    1.48    0.37
   0 -16  -6    1.84    0.86
   0 -16  -6    1.04    0.46
   0 -16   6    0.46    0.46
   0  16  -6    0.58    0.49
   0  16   6    1.13    0.52
   0  16  -6    1.27    0.41
   0  16  -6    0.98    0.35
   0  16   6    1.20    0.56
  -1 -16  -6    5.00    1.08
  -1 -16  -6    2.12    0.89
  -1 -16  -6    3.53    0.75
   1 -16   6    3.49    0.81
  -1  16  -6    3.50    0.92
  -1  16  -6    3.78    0.72
  -1  16  -6    4.92    0.79
   1  16   6    2.43    0.70
  -2 -16  -6    0.74    0.84
   2 -16   6    0.66    0.49
  -2 -16  -6    1.64    0.52
  -2  16  -6   -0.15    0.37
   2  16   6    1.17    0.45
  -2  16  -6    0.48    0.54
  -2  16  -6    0.66    0.46
   3 -16   6    0.25    0.44
  -3 -16  -6    0.15    0.47
  -3 -16  -6    0.08    0.61
   3 -16   6    0.48    0.46
  -3  16  -6   -0.01    0.53
  -3  16  -6   -0.37    0.36
  -3  16  -6    0.28    0.38
  -4 -16  -6    0.94    0.82
   4 -16   6   -0.40    0.43
   4 -16   6    1.46    0.67
  -4  16  -6    0.78    0.83
  -4  16  -6   -0.36    0.70
  -4  16  -6    0.76    0.72
   6 -17  -6    0.63    0.67
  -6  17   6    0.46    0.59
   6  17  -6    0.15    0.51
   5 -17  -6   -0.44    0.56
   5 -17  -6    0.42    0.67
   5  17  -6   -0.03    0.39
  -5  17   6    0.34    0.48
   4 -17  -6   15.57    1.41
   4 -17  -6   14.14    2.14
  -4  17   6   12.73    1.70
   4  17  -6   13.77    1.44
   3 -17  -6    1.04    0.59
   3 -17  -6    1.00    0.84
   3  17  -6    0.66    0.64
  -3  17   6    0.43    0.48
  -3  17   6   -0.04    0.48
   2 -17  -6    5.25    1.20
   2 -17  -6    4.51    1.29
  -2  17   6    4.94    0.99
  -2  17   6    5.74    1.00
   2  17  -6    4.65    0.97
  -1 -17   6    0.25    0.50
   1 -17  -6    0.96    0.77
   1  17  -6    0.36    0.48
  -1  17   6    1.00    0.98
  -1  17   6    0.00    0.43
   0 -17   6    0.00    0.47
   0 -17  -6    0.69    0.58
   0 -17  -6    0.86    0.71
   0  17   6   -0.06    0.34
   0  17  -6    0.53    0.64
   0  17   6    1.53    0.54
   0  17  -6    0.57    0.32
   0  17  -6    0.18    0.30
  -1 -17  -6    1.62    0.94
   1 -17   6    1.13    0.64
   1  17   6    0.63    0.61
   1  17   6    1.94    0.62
  -1  17  -6    1.41    0.49
  -1  17  -6    1.91    0.77
  -1  17  -6    0.90    0.48
  -2 -17  -6    4.03    1.23
   2 -17   6    4.73    0.96
   2  17   6    4.41    0.77
  -2  17  -6    3.15    0.94
  -2  17  -6    4.33    0.79
   2  17   6    3.90    0.74
  -2  17  -6    4.02    0.82
  -3 -17  -6    1.64    1.02
   3 -17   6    0.49    0.52
  -3  17  -6   -0.06    0.48
   3  17   6   -0.11    0.42
  -3  17  -6    0.87    0.80
   5 -18  -6    1.49    0.75
   5 -18  -6    3.14    1.15
  -5  18   6    0.34    0.60
   5  18  -6    1.70    0.66
   4 -18  -6   -0.36    0.48
   4 -18  -6    0.27    0.57
   4  18  -6    0.79    0.63
  -4  18   6   -0.29    0.53
   3 -18  -6    0.86    0.55
   3 -18  -6   -0.52    0.59
   3  18  -6    0.57    0.55
  -3  18   6   -0.78    0.36
   2 -18  -6   -0.25    0.61
   2  18  -6   -0.15    0.53
  -2  18   6    0.46    0.74
   1 -18  -6   14.06    2.44
  -1 -18   6   11.23    1.61
   1  18  -6    9.46    1.48
  -1  18   6   11.55    1.49
  -1  18   6   11.60    1.20
   0 -18   6    1.20    0.74
   0 -18  -6    0.37    0.69
   0  18  -6    0.67    0.75
   0  18   6    2.16    0.66
   0  18   6    0.92    0.59
   0  18  -6    1.52    0.42
  -1 -18  -6    4.93    1.26
   1 -18   6    7.17    1.30
  -1  18  -6    6.47    0.89
   1  18   6    7.25    1.03
   1  18   6    4.87    0.92
  -1  18  -6    5.86    1.22
  -1  18  -6    6.63    0.90
   2 -19  -6    0.56    0.64
   2  19  -6   -0.38    0.57
 -13   0   7   -0.43    0.46
  13   0  -7   -0.76    0.54
 -12   0   7   -0.46    0.39
  12   0  -7   -1.59    0.53
  12   0  -7   -0.08    0.53
  12   0  -7   -0.84    0.69
  11   0  -7    0.53    0.56
  11   0  -7    0.12    0.57
 -11   0   7    0.02    0.38
  11   0  -7   -0.19    0.36
  11   0  -7   -0.36    0.46
  10   0  -7   -0.71    0.43
 -10   0   7    0.28    0.46
  10   0  -7   -0.01    0.63
  10   0  -7    0.71    0.47
  10   0  -7    0.00    0.38
   9   0  -7    0.65    0.43
   9   0  -7   -0.03    0.42
  -9   0   7   -0.34    0.29
   9   0  -7    0.45    0.50
   9   0  -7    0.07    0.34
   8   0  -7   -0.12    0.42
   8   0  -7   -0.16    0.32
   8   0  -7    0.17    0.37
  -8   0   7    0.07    0.32
   8   0  -7    0.15    0.47
   7   0  -7    0.40    0.36
   7   0  -7   -0.26    0.39
   7   0  -7    0.56    0.46
   7   0  -7    0.26    0.32
  -7   0   7    0.60    0.43
   6   0  -7   -0.14    0.25
  -6   0   7    0.20    0.28
  -6   0   7   -0.06    0.25
   6   0  -7    0.16    0.36
   6   0  -7   -0.39    0.22
   5   0  -7   -0.03    0.24
  -5   0   7   -0.13    0.28
   5   0  -7    0.10    0.34
  -5   0   7    0.07    0.28
   4   0  -7   -0.19    0.22
  -4   0   7    0.40    0.34
  -4   0   7   -0.12    0.22
   4   0  -7   -0.25    0.30
  -3   0   7    0.46    0.37
   3   0  -7    0.71    0.40
   3   0  -7    0.03    0.23
   2   0  -7    0.14    0.24
   2   0  -7    0.27    0.25
   2   0  -7    0.65    0.62
  -2   0   7    0.05    0.29
   1   0  -7   -0.32    0.15
  -1   0   7   -0.17    0.26
   1   0  -7    0.09    0.20
   0   0   7    0.01    0.31
   0   0  -7    0.01    0.20
   0   0   7   -0.10    0.17
   0   0  -7   -0.09    0.29
   0   0  -7   -0.12    0.17
   1   0   7    0.09    0.30
  -1   0  -7   -0.25    0.25
   1   0   7    0.13    0.18
  -1   0  -7    0.08    0.40
   2   0   7   -0.12    0.27
  -2   0  -7   -0.32    0.30
   2   0   7    0.04    0.25
   3   0   7    0.46    0.44
   3   0   7    0.68    0.35
  -3   0  -7    0.33    0.46
  -4   0  -7    0.29    0.48
   5   0   7   -0.39    0.47
  -5   0  -7    0.12    0.47
  -6   0  -7   -0.54    0.44
  -6   0  -7   -0.28    0.37
   6   0   7    0.28    0.56
  -7   0  -7    0.25    0.46
  -7   0  -7   -0.71    0.51
  -8   0  -7    0.14    0.45
  -8   0  -7   -0.07    0.54
 -13  -1   7    0.73    0.54
  13  -1  -7    1.22    0.78
 -13   1   7    0.07    0.53
  13   1  -7    2.46    0.97
  13   1  -7   -0.59    0.73
  12  -1  -7   -0.14    0.69
  12  -1  -7    1.04    0.80
 -12  -1   7   -0.02    0.41
  12  -1  -7    1.18    0.70
  12   1  -7   -3.26    1.13
 -12   1   7    1.00    0.61
  12   1  -7    0.45    0.70
  12   1  -7    0.81    0.82
 -11  -1   7    1.42    0.63
  11  -1  -7   -0.19    1.19
  11  -1  -7    0.55    0.67
  11  -1  -7   -0.01    0.39
  11   1  -7   -0.02    0.61
  11   1  -7    1.44    0.74
  11   1  -7    1.20    0.64
 -11   1   7    0.33    0.50
  11   1  -7   -0.19    0.43
  10  -1  -7   -0.29    0.40
  10  -1  -7    0.02    0.45
  10  -1  -7    0.39    0.47
 -10  -1   7    0.26    0.43
  10  -1  -7    0.16    0.56
 -10   1   7   -0.05    0.31
  10   1  -7   -0.22    0.47
  10   1  -7    0.00    0.43
  10   1  -7    0.37    0.41
  10   1  -7   -0.14    0.37
   9  -1  -7   -0.47    0.36
   9  -1  -7    0.17    0.38
  -9  -1   7   -0.22    0.27
   9  -1  -7   -0.51    0.40
  -9   1   7   -0.04    0.31
   9   1  -7   -0.36    0.36
   9   1  -7    0.16    0.43
   9   1  -7    1.14    0.48
   9   1  -7    0.20    0.34
   8  -1  -7    0.12    0.42
   8  -1  -7    0.56    0.41
   8  -1  -7    0.53    0.39
   8  -1  -7    1.42    0.57
  -8  -1   7   -0.18    0.29
  -8   1   7    0.34    0.40
   8   1  -7    0.41    0.42
   8   1  -7    0.32    0.38
   8   1  -7    1.15    0.67
   8   1  -7   -0.16    0.34
   7  -1  -7    0.62    0.40
   7  -1  -7    1.03    0.51
   7  -1  -7    0.67    0.46
  -7  -1   7    0.87    0.47
   7  -1  -7    0.91    0.45
  -7   1   7    1.01    0.48
   7   1  -7    1.49    0.55
   7   1  -7    0.86    0.51
   7   1  -7    1.32    0.53
   7   1  -7    0.54    0.38
  -6  -1   7    0.09    0.26
   6  -1  -7    0.57    0.41
  -6  -1   7    0.54    0.38
   6  -1  -7    0.24    0.35
   6  -1  -7    0.32    0.34
   6   1  -7    1.02    0.44
  -6   1   7    0.78    0.39
  -6   1   7    0.35    0.35
   6   1  -7    0.53    0.42
   6   1  -7    0.87    0.45
   5  -1  -7   -0.19    0.25
  -5  -1   7    0.54    0.41
  -5  -1   7   -0.02    0.25
   5  -1  -7    0.24    0.37
   5   1  -7   -0.19    0.21
   5   1  -7    0.07    0.30
  -5   1   7   -0.08    0.24
  -5   1   7    0.01    0.27
  -4  -1   7    2.20    0.55
   4  -1  -7    1.60    0.47
   4  -1  -7    1.61    0.52
  -4   1   7    2.02    0.54
   4   1  -7    2.66    0.60
   4   1  -7    2.01    0.55
  -4   1   7    1.48    0.49
   3  -1  -7   24.91    1.42
   3  -1  -7   26.79    1.37
  -3  -1   7   23.73    1.42
   3   1  -7   24.42    1.42
  -3   1   7   25.82    1.47
  -3   1   7   22.10    1.42
   2  -1  -7   20.23    1.11
   2  -1  -7   20.41    1.27
   2  -1  -7   22.10    1.44
  -2  -1   7   21.02    1.33
  -2   1   7   20.52    1.35
   2   1  -7   21.50    0.97
   2   1  -7   20.49    1.37
   1  -1  -7   13.39    0.86
   1  -1  -7   14.88    1.08
  -1  -1   7   13.66    1.12
   1  -1  -7   13.65    1.17
  -1   1   7   13.62    1.15
   1   1  -7   13.75    0.67
   1   1  -7   14.75    1.20
   1   1  -7   14.68    1.08
   0  -1   7   17.09    1.27
   0  -1  -7   19.23    1.38
   0  -1  -7   17.59    0.98
   0  -1  -7   17.98    1.17
   0   1  -7   18.51    0.75
   0   1   7   17.50    0.94
   0   1   7   18.50    1.35
  -1  -1  -7    5.51    0.76
   1  -1   7    5.60    0.44
   1  -1   7    7.87    1.15
  -1  -1  -7    5.71    0.64
  -1  -1  -7    5.29    1.11
   1   1   7    4.19    0.75
  -1   1  -7    6.70    1.01
  -2  -1  -7    1.61    0.48
   2  -1   7    1.72    0.57
   2  -1   7    1.92    0.38
  -2  -1  -7    0.96    0.59
  -2   1  -7    1.19    0.57
   2   1   7    1.78    0.63
   2   1   7    1.71    0.46
   3  -1   7    7.66    1.20
  -3  -1  -7    8.44    1.22
   3  -1   7    6.35    0.64
  -3   1  -7    5.26    1.03
   3   1   7    6.59    1.05
  -4  -1  -7    5.35    0.98
   4  -1   7    6.25    1.08
   4   1   7    5.77    1.01
  -4   1  -7    5.25    1.06
  -5  -1  -7    1.17    0.68
   5   1   7   -0.38    0.50
  -5   1  -7    0.82    0.60
   6  -1   7    3.89    0.98
  -6  -1  -7    3.44    0.71
  -6  -1  -7    3.33    1.02
   6   1   7    3.78    1.35
  -6   1  -7    3.85    0.78
  -6   1  -7    1.86    0.72
  -7  -1  -7    6.88    1.37
  -7  -1  -7    3.23    0.70
  -7   1  -7    5.78    1.28
   7   1   7    4.25    1.08
  -7   1  -7    4.03    0.81
  -8  -1  -7    0.85    0.76
  -8  -1  -7    0.43    0.49
  -8   1  -7    1.94    0.82
  -8   1  -7    0.73    0.58
  13  -2  -7    0.72    0.70
 -13  -2   7   -0.43    0.49
  13   2  -7    0.96    0.90
 -13   2   7    0.67    0.60
 -12  -2   7    5.44    1.01
  12  -2  -7    5.45    1.36
  12  -2  -7    4.97    1.16
  12   2  -7    5.38    1.16
 -12   2   7    7.44    1.24
  12   2  -7    7.71    1.34
  12   2  -7    5.06    1.28
  12   2  -7    5.60    1.07
  11  -2  -7   -0.52    0.35
  11   2  -7    0.49    0.68
  11   2  -7   -0.57    0.52
 -11   2   7    0.98    0.53
  11   2  -7    0.41    0.63
  11   2  -7   -0.52    0.40
  10  -2  -7    0.33    0.55
  10  -2  -7    1.11    0.57
  10  -2  -7    1.68    0.82
  10  -2  -7    0.44    0.58
 -10  -2   7    1.41    0.53
  10   2  -7    1.93    0.73
 -10   2   7    0.42    0.50
  10   2  -7    1.16    0.59
  10   2  -7    1.06    0.60
   9  -2  -7    3.22    0.86
   9  -2  -7    2.61    0.68
  -9  -2   7    1.79    0.62
   9  -2  -7    3.32    0.87
   9  -2  -7    3.32    0.89
   9   2  -7    2.64    0.72
  -9   2   7    3.36    0.80
   9   2  -7    2.24    0.71
   9   2  -7    1.71    0.65
   9   2  -7    1.79    0.62
   8  -2  -7    0.38    0.44
   8  -2  -7    0.60    0.54
   8  -2  -7    1.13    0.63
  -8  -2   7    0.58    0.42
   8  -2  -7    0.75    0.53
   8   2  -7    1.33    0.51
   8   2  -7    1.21    0.56
   8   2  -7    0.57    0.40
   8   2  -7    1.08    0.55
  -8   2   7    1.32    0.54
   7  -2  -7    4.56    0.87
   7  -2  -7    5.05    0.91
   7  -2  -7    4.01    0.87
  -7  -2   7    4.53    0.90
   7   2  -7    3.55    0.89
   7   2  -7    2.36    0.60
   7   2  -7    3.57    0.78
   7   2  -7    3.97    0.79
  -7   2   7    4.16    0.77
   6  -2  -7    8.48    1.14
   6  -2  -7    8.77    1.15
   6  -2  -7    8.86    1.20
  -6  -2   7    8.50    0.94
   6  -2  -7    9.78    1.05
  -6   2   7    7.19    0.96
   6   2  -7    9.46    0.97
   6   2  -7    9.01    1.15
   6   2  -7    8.92    1.11
  -6   2   7    9.08    1.02
   5  -2  -7   13.88    1.14
  -5  -2   7   14.61    1.11
   5  -2  -7   13.68    1.24
   5   2  -7   14.51    1.21
  -5   2   7   16.45    1.24
  -5   2   7   13.13    1.17
   5   2  -7   14.65    1.13
   4  -2  -7    8.10    0.89
  -4  -2   7    6.32    0.84
   4  -2  -7    8.98    1.03
  -4   2   7    6.32    0.87
   4   2  -7    8.88    0.89
  -4   2   7    8.01    0.91
   4   2  -7    9.29    0.95
   3  -2  -7    3.49    0.75
   3  -2  -7    2.87    0.61
  -3  -2   7    4.68    0.79
   3  -2  -7    4.60    0.75
   3   2  -7    3.41    0.64
   3   2  -7    3.34    0.68
  -3   2   7    3.99    0.77
  -3   2   7    4.31    0.79
  -2  -2   7    0.39    0.33
   2  -2  -7    0.09    0.25
   2  -2  -7    0.24    0.39
   2  -2  -7    0.77    0.37
  -2   2   7    0.49    0.46
  -2   2   7   -0.08    0.29
   2   2  -7    0.29    0.21
   2   2  -7    0.11    0.31
   2   2  -7    0.60    0.35
   1  -2  -7    7.17    1.05
   1  -2  -7    6.12    0.68
   1  -2  -7    7.44    0.78
  -1  -2   7    7.90    1.05
   1   2  -7    6.34    0.89
  -1   2   7    6.03    0.96
   0  -2   7    1.51    0.50
   0  -2  -7    1.47    0.45
   0  -2  -7    2.78    0.54
   0  -2  -7    1.18    0.50
   0   2  -7    1.47    0.53
   0   2   7    2.30    0.49
  -1  -2  -7    2.15    0.63
  -1  -2  -7    1.96    0.50
  -1  -2  -7    1.61    0.42
   1  -2   7    1.99    0.60
   1   2   7    1.55    0.43
   1   2   7    1.47    0.56
  -1   2  -7    2.03    0.60
   2  -2   7    1.12    0.47
  -2  -2  -7    0.36    0.27
  -2  -2  -7   -0.59    0.55
   2   2   7    1.17    0.52
   2   2   7    0.72    0.44
  -2   2  -7    1.50    0.59
   3  -2   7    0.62    0.31
   3  -2   7    1.07    0.56
  -3  -2  -7    0.37    0.34
   3   2   7   -0.10    0.33
  -3   2  -7    1.26    0.83
  -4  -2  -7   11.08    1.47
  -4  -2  -7   10.28    0.90
   4  -2   7    8.06    1.23
   4  -2   7   10.29    0.85
   4   2   7    9.48    1.36
  -4   2  -7   10.20    1.46
  -5  -2  -7   15.37    1.11
   5  -2   7   11.78    1.58
  -5  -2  -7   13.03    1.50
  -5   2  -7   18.38    1.66
   5   2   7   17.58    1.67
   6  -2   7    0.62    0.69
  -6  -2  -7    1.55    0.56
  -6  -2  -7    2.63    0.58
  -6  -2  -7    2.30    0.77
  -6   2  -7    2.07    0.77
   6   2   7    3.29    0.89
  -6   2  -7    2.10    0.64
  -7  -2  -7   -1.03    0.32
  -7  -2  -7   -0.52    0.28
  -7  -2  -7    0.74    0.66
   7   2   7   -0.41    0.65
  -7   2  -7    0.59    0.47
  -7   2  -7   -0.57    0.45
  -8  -2  -7    0.35    0.41
  -8  -2  -7    1.71    0.58
  -8  -2  -7    2.08    0.96
  -8   2  -7   -0.11    0.85
  -8   2  -7    1.48    0.57
  12  -3  -7    0.55    0.69
  12  -3  -7   -0.40    0.53
 -12   3   7   -0.06    0.41
  12   3  -7    1.39    0.56
  12   3  -7    0.88    0.69
  12   3  -7    0.03    0.60
  11  -3  -7    0.81    0.77
  11  -3  -7    1.05    0.92
  11  -3  -7    0.64    0.67
  11   3  -7    0.92    0.53
 -11   3   7    1.14    0.66
  11   3  -7    0.73    0.63
  11   3  -7    0.13    0.56
  11   3  -7   -0.46    0.62
  10  -3  -7    8.88    1.43
  10  -3  -7   11.99    1.79
  10  -3  -7   10.88    1.50
  10   3  -7   12.74    1.40
  10   3  -7   10.69    1.47
 -10   3   7    9.69    1.33
  10   3  -7    7.50    1.03
  10   3  -7   12.54    1.73
   9  -3  -7   27.66    1.96
   9  -3  -7   26.46    2.03
   9  -3  -7   28.98    1.87
   9  -3  -7   30.72    2.11
   9   3  -7   27.99    1.96
   9   3  -7   25.49    1.83
  -9   3   7   25.82    1.82
   9   3  -7   24.89    1.81
   9   3  -7   27.61    1.69
   8  -3  -7    9.42    1.35
   8  -3  -7   10.39    1.50
   8  -3  -7   10.82    1.24
   8   3  -7   10.50    1.03
  -8   3   7   10.64    1.16
   8   3  -7   11.26    1.60
   8   3  -7   10.66    1.12
   8   3  -7   10.27    1.20
   7  -3  -7    0.39    0.37
   7  -3  -7    0.24    0.37
   7  -3  -7   -0.37    0.29
   7  -3  -7    0.18    0.39
   7   3  -7    0.06    0.27
   7   3  -7   -0.22    0.26
   7   3  -7    0.19    0.35
  -7   3   7   -0.28    0.23
   7   3  -7   -0.30    0.29
  -6  -3   7   21.80    1.40
   6  -3  -7   24.77    1.64
   6  -3  -7   22.08    1.48
   6  -3  -7   25.51    1.73
   6  -3  -7   24.00    1.57
   6   3  -7   21.12    1.41
  -6   3   7   24.66    1.57
  -6   3   7   22.95    1.58
   6   3  -7   21.85    1.51
   6   3  -7   21.89    1.40
  -5  -3   7    0.70    0.33
   5  -3  -7    0.57    0.41
   5  -3  -7    0.44    0.53
  -5   3   7    0.25    0.32
   5   3  -7    0.58    0.34
   5   3  -7    0.44    0.38
  -5   3   7    0.42    0.37
   4  -3  -7   64.39    2.57
  -4  -3   7   56.48    2.23
   4  -3  -7   62.87    2.45
   4   3  -7   59.92    2.40
  -4   3   7   59.98    2.49
  -4   3   7   62.91    2.46
   4   3  -7   56.85    2.35
   3  -3  -7    9.22    0.92
   3  -3  -7   10.80    1.51
  -3  -3   7    9.80    0.87
   3   3  -7    9.07    0.92
   3   3  -7    9.81    0.92
  -3   3   7    7.72    0.88
  -3   3   7    6.14    1.29
   2  -3  -7   28.88    1.48
   2  -3  -7   24.48    1.39
   2  -3  -7   26.11    1.62
  -2  -3   7   24.50    1.39
  -2   3   7   25.97    1.48
   2   3  -7   22.68    1.41
   2   3  -7   25.42    1.50
  -2   3   7   24.35    1.52
   1  -3  -7   33.19    1.60
   1  -3  -7   33.09    1.59
   1  -3  -7   37.11    1.90
  -1  -3   7   34.56    1.74
  -1   3   7   34.41    1.83
  -1   3   7   34.84    1.59
   1   3  -7   32.85    1.74
   0  -3  -7    5.40    0.75
   0  -3  -7    6.18    0.96
   0  -3   7    4.91    0.80
   0  -3  -7    6.99    0.77
   0   3   7    6.03    0.99
   0   3   7    6.10    0.85
   0   3  -7    6.25    0.97
  -1  -3  -7    7.64    1.13
  -1  -3  -7    6.46    0.73
  -1  -3  -7    8.06    0.85
   1  -3   7    5.44    0.86
  -1   3  -7    5.23    0.85
  -2  -3  -7    0.59    0.34
  -2  -3  -7   -0.02    0.39
   2  -3   7    0.36    0.44
  -2  -3  -7   -0.33    0.22
   2   3   7    0.14    0.38
  -2   3  -7    0.55    0.47
   3  -3   7    1.42    0.58
  -3  -3  -7    0.29    0.34
  -3  -3  -7    1.00    0.69
   3  -3   7    1.04    0.31
  -3   3  -7    0.03    0.43
   3   3   7   -0.59    0.38
   4  -3   7    2.75    1.22
  -4  -3  -7    4.31    1.00
   4  -3   7    5.13    0.70
  -4  -3  -7    3.70    0.62
   4   3   7    4.70    1.02
  -4   3  -7    3.51    0.88
  -5  -3  -7    0.77    0.39
  -5  -3  -7    0.36    0.58
   5  -3   7   -0.49    0.46
   5   3   7    0.16    0.51
  -5   3  -7    0.03    0.49
  -5   3  -7   -0.48    0.26
  -6  -3  -7   -0.25    0.44
  -6  -3  -7    0.37    0.49
  -6  -3  -7    0.23    0.32
   6   3   7   -0.69    0.45
  -6   3  -7    0.61    0.50
  -6   3  -7   -0.62    0.36
  -7  -3  -7    4.10    1.12
  -7  -3  -7    5.38    0.73
  -7   3  -7    3.47    0.97
   7   3   7    6.97    1.34
  -7   3  -7    4.25    0.93
  -8  -3  -7   -0.07    0.62
  -8   3  -7    1.32    0.86
  -8   3  -7    1.51    0.66
  12  -4  -7    0.38    0.66
 -12   4   7    1.31    0.66
  12   4  -7    0.89    0.80
  12   4  -7    1.85    0.87
  12   4  -7    2.01    0.86
  12   4  -7    2.28    0.67
  11  -4  -7   -0.17    0.45
  11  -4  -7    2.79    0.94
  11   4  -7    0.71    0.67
  11   4  -7    0.91    0.56
  11   4  -7    1.42    0.67
 -11   4   7    2.34    0.75
  11   4  -7    1.42    0.88
  10  -4  -7    4.65    1.04
  10  -4  -7    4.89    1.07
  10  -4  -7    3.35    0.96
 -10   4   7    5.03    1.07
  10   4  -7    4.24    1.08
  10   4  -7    5.20    1.07
  10   4  -7    5.98    1.06
  10   4  -7    4.48    0.77
   9  -4  -7    1.02    0.56
   9  -4  -7    0.11    0.45
   9  -4  -7   -0.20    0.42
   9  -4  -7    0.86    0.79
   9   4  -7    0.77    0.53
  -9   4   7    1.03    0.62
   9   4  -7    0.34    0.41
   9   4  -7    1.43    0.60
   8  -4  -7   -0.32    0.33
   8  -4  -7   -0.20    0.40
   8  -4  -7    0.85    0.50
   8   4  -7    0.22    0.36
   8   4  -7    0.10    0.35
  -8   4   7   -0.14    0.30
   8   4  -7    0.93    0.49
   8   4  -7    0.45    0.46
   7  -4  -7   18.32    1.58
   7  -4  -7   16.91    1.45
   7  -4  -7   16.91    1.36
   7  -4  -7   17.64    1.45
   7   4  -7   16.32    1.29
   7   4  -7   16.25    1.29
   7   4  -7   17.63    1.40
   7   4  -7   16.67    1.25
  -7   4   7   15.59    1.35
   6  -4  -7   20.06    1.48
   6  -4  -7   20.92    1.47
   6  -4  -7   20.87    1.52
   6  -4  -7   23.09    1.67
  -6   4   7   22.32    1.53
  -6   4   7   19.20    1.49
   6   4  -7   20.25    1.34
   6   4  -7   21.94    1.41
   6   4  -7   21.51    1.46
   5  -4  -7   33.59    1.85
   5  -4  -7   32.01    1.90
  -5  -4   7   31.36    1.59
   5  -4  -7   33.18    1.95
   5  -4  -7   34.04    1.79
   5   4  -7   33.94    1.73
   5   4  -7   31.86    1.71
  -5   4   7   31.31    1.77
  -5   4   7   29.83    1.79
   4  -4  -7    4.20    1.01
   4  -4  -7    6.01    1.02
   4  -4  -7    4.41    0.75
  -4  -4   7    4.40    0.69
   4   4  -7    2.95    0.62
  -4   4   7    3.50    0.65
  -4   4   7    5.50    0.89
   4   4  -7    4.70    0.82
  -3  -4   7   31.80    1.55
   3  -4  -7   34.99    1.72
   3  -4  -7   30.64    1.77
   3  -4  -7   33.38    1.77
  -3   4   7   32.76    1.70
   3   4  -7   29.08    1.62
   3   4  -7   32.16    1.65
  -3   4   7   31.63    1.74
   2  -4  -7   47.70    2.02
   2  -4  -7   49.20    2.22
   2  -4  -7   47.59    2.08
  -2  -4   7   45.46    1.94
  -2   4   7   49.36    2.22
   2   4  -7   46.63    2.06
   2   4  -7   47.06    1.36
  -2   4   7   49.91    2.08
   1  -4  -7   20.16    1.25
  -1  -4   7   22.02    1.36
   1  -4  -7   23.15    1.50
   1   4  -7   22.54    1.41
  -1   4   7   23.52    1.51
  -1   4   7   20.94    1.46
   0  -4  -7    2.55    0.67
   0  -4   7    1.62    0.51
   0  -4  -7    2.19    0.70
   0  -4  -7    1.99    0.50
   0   4  -7    1.25    0.50
   0   4   7    1.70    0.55
   1  -4   7    2.97    0.64
  -1  -4  -7    4.75    0.88
  -1  -4  -7    5.29    0.74
  -1  -4  -7    3.53    0.77
   1   4   7    5.38    0.98
  -1   4  -7    4.62    0.81
  -2  -4  -7   17.45    1.42
   2  -4   7   14.87    1.34
  -2  -4  -7   17.24    1.35
  -2   4  -7   17.04    1.42
  -3  -4  -7   16.37    1.04
   3  -4   7   14.71    1.38
   3  -4   7   14.06    0.73
  -3  -4  -7   16.49    1.46
  -3   4  -7   17.82    1.51
   3   4   7   15.13    1.43
   4  -4   7   -0.07    0.47
  -4  -4  -7    0.35    0.53
  -4  -4  -7    0.68    0.35
   4  -4   7    0.45    0.41
  -4   4  -7   -0.34    0.35
  -5  -4  -7    2.93    0.89
  -5  -4  -7    3.68    0.57
  -5   4  -7    3.14    0.76
  -5   4  -7    3.63    0.90
   5   4   7    2.90    0.88
  -6  -4  -7    5.44    0.66
  -6  -4  -7    4.98    0.63
  -6  -4  -7    3.61    0.96
  -6   4  -7    6.70    1.98
  -6   4  -7    6.14    1.05
   6   4   7    6.28    1.22
  -7  -4  -7    3.16    1.00
  -7   4  -7    4.34    0.93
  -7   4  -7    4.04    1.11
   7   4   7    3.82    1.55
  -8  -4  -7   -0.53    0.60
  -8   4  -7    2.02    0.88
   8   4   7   -0.77    0.78
  -8   4  -7   -0.40    0.52
  -8   4  -7    0.44    0.63
  12  -5  -7   -0.06    0.57
 -12   5   7    0.81    0.62
  12   5  -7    0.17    0.64
  12   5  -7    0.12    0.68
  12   5  -7    0.74    0.55
  12   5  -7    1.17    0.74
  11  -5  -7    2.83    1.31
  11  -5  -7    5.10    1.31
  11   5  -7    3.19    0.89
  11   5  -7    4.13    0.97
  11   5  -7    3.33    0.91
  11   5  -7    3.31    0.75
 -11   5   7    1.79    0.73
  10  -5  -7    0.15    0.53
  10  -5  -7    1.07    0.60
  10   5  -7    0.27    0.54
 -10   5   7    0.51    0.49
  10   5  -7    0.44    0.49
  10   5  -7   -0.29    0.43
  10   5  -7    1.73    0.55
   9  -5  -7   12.90    1.68
   9  -5  -7   13.33    1.53
   9  -5  -7   11.93    1.36
   9   5  -7   10.71    1.07
  -9   5   7   13.65    1.39
   9   5  -7   11.11    1.22
   9   5  -7   13.00    1.34
   9   5  -7   12.76    1.31
   8  -5  -7    9.10    1.28
   8  -5  -7    7.28    1.20
   8  -5  -7   10.52    1.14
   8  -5  -7    7.75    1.32
  -8   5   7    8.18    1.26
   8   5  -7    7.70    1.17
   8   5  -7    6.75    1.01
   8   5  -7    9.07    1.18
   8   5  -7   10.04    1.09
   7  -5  -7   24.78    1.84
   7  -5  -7   19.95    2.73
   7  -5  -7   22.11    1.66
   7  -5  -7   21.37    1.65
  -7   5   7   23.48    1.65
   7   5  -7   22.27    1.47
   7   5  -7   22.47    1.55
   7   5  -7   24.13    1.52
   7   5  -7   23.55    1.47
   6  -5  -7    2.08    0.68
   6  -5  -7    1.90    0.57
   6  -5  -7    2.28    0.66
   6  -5  -7    2.06    0.60
   6   5  -7    2.21    0.55
  -6   5   7    1.87    0.58
   6   5  -7    2.02    0.58
   6   5  -7    2.49    0.60
  -6   5   7    3.15    0.77
   5  -5  -7    3.53    0.90
   5  -5  -7    2.95    0.69
   5  -5  -7    4.24    0.82
  -5  -5   7    2.97    0.58
   5  -5  -7    2.99    0.77
   5   5  -7    3.14    0.68
   5   5  -7    2.62    0.65
  -5   5   7    3.73    0.79
  -5   5   7    2.96    0.69
  -4  -5   7    0.50    0.28
   4  -5  -7    0.33    0.38
   4  -5  -7   -0.32    0.30
   4  -5  -7    0.18    0.28
   4   5  -7    0.15    0.25
   4   5  -7    0.11    0.32
  -4   5   7    0.28    0.34
  -3  -5   7   53.10    2.05
   3  -5  -7   48.46    2.60
   3  -5  -7   53.43    2.23
   3  -5  -7   55.88    2.44
   3   5  -7   53.98    1.81
   3   5  -7   57.05    2.22
  -3   5   7   56.17    2.42
  -3   5   7   54.51    2.27
   2  -5  -7    0.69    0.42
   2  -5  -7    1.27    0.49
   2  -5  -7    1.46    0.47
  -2  -5   7    2.06    0.49
   2   5  -7    1.98    0.32
  -2   5   7    2.03    0.57
  -2   5   7    1.82    0.50
   2   5  -7    1.89    0.58
   1  -5  -7    6.14    0.94
   1  -5  -7    6.06    0.83
   1  -5  -7    6.90    1.01
  -1  -5   7    4.97    0.76
   1   5  -7    4.96    0.80
  -1   5   7    5.36    0.92
  -1   5   7    7.11    1.06
   0  -5  -7    0.03    0.25
   0  -5   7    0.70    0.36
   0  -5  -7    0.55    0.43
   0  -5  -7    0.38    0.41
   0   5  -7   -0.04    0.33
   0   5   7   -0.23    0.32
  -1  -5  -7    0.50    0.31
  -1  -5  -7    0.07    0.29
   1  -5   7   -0.04    0.30
  -1  -5  -7    0.37    0.41
  -1   5  -7    0.29    0.38
   1   5   7    0.31    0.40
   2  -5   7    0.61    0.46
  -2  -5  -7    1.46    0.40
  -2  -5  -7    1.24    0.56
  -2  -5  -7    1.27    0.54
   2   5   7    1.45    0.59
  -2   5  -7    1.53    0.59
   3  -5   7    0.14    0.66
  -3  -5  -7   -0.51    0.38
  -3  -5  -7    0.50    0.28
  -3  -5  -7   -0.32    0.32
  -3   5  -7   -0.16    0.32
   3   5   7    0.68    0.48
   4  -5   7    4.10    0.56
   4  -5   7    4.85    1.00
  -4  -5  -7    3.86    0.59
  -4  -5  -7    3.83    0.92
  -4   5  -7    3.63    0.85
   4   5   7    2.77    0.81
   5  -5   7   12.20    1.01
  -5  -5  -7   13.36    1.49
  -5   5  -7   13.04    1.47
   5   5   7   16.39    1.59
  -5   5  -7   14.42    1.37
  -6  -5  -7   13.45    1.50
   6   5   7    9.94    1.52
  -6   5  -7    8.32    1.40
  -6   5  -7    9.81    1.32
  -7  -5  -7    7.12    1.35
  -7   5  -7    6.41    1.14
  -7   5  -7    5.76    1.21
   7   5   7    9.76    1.53
  -8  -5  -7   11.69    1.76
  -8   5  -7    8.65    1.37
   8   5   7    9.32    1.58
  -8   5  -7    9.14    1.75
  -8   5  -7    9.21    1.71
  12  -6  -7    0.14    0.67
  12   6  -7   -1.05    0.88
  12   6  -7    0.44    0.61
  12   6  -7    0.68    0.63
  11  -6  -7    1.47    0.90
  11   6  -7    0.56    0.57
 -11   6   7    1.25    0.61
  11   6  -7    0.48    0.54
  11   6  -7    1.19    0.66
  11   6  -7    0.92    0.41
  10  -6  -7   -0.34    0.47
  10  -6  -7   -0.20    0.42
  10   6  -7   -0.34    0.47
  10   6  -7    0.24    0.53
  10   6  -7    0.26    0.45
  10   6  -7    0.26    0.38
 -10   6   7   -0.36    0.39
   9  -6  -7    4.11    1.01
   9  -6  -7    6.34    1.11
   9  -6  -7    6.80    1.21
  -9   6   7    7.59    1.24
   9   6  -7    4.71    0.93
   9   6  -7    5.89    1.05
   9   6  -7    7.05    1.14
   9   6  -7    6.01    0.93
   8  -6  -7   11.71    1.32
   8  -6  -7   11.72    1.27
   8  -6  -7   12.45    1.73
   8  -6  -7   13.65    1.38
   8   6  -7   11.26    1.12
   8   6  -7   10.62    1.20
   8   6  -7   10.13    1.13
   8   6  -7   12.34    1.17
  -8   6   7   10.26    1.39
   7  -6  -7   21.73    1.62
   7  -6  -7   20.94    1.73
   7  -6  -7   22.12    1.66
   7  -6  -7   19.99    1.54
   7   6  -7   19.91    1.46
   7   6  -7   18.03    1.33
  -7   6   7   20.85    1.60
   7   6  -7   20.45    1.39
   7   6  -7   21.29    1.42
   6  -6  -7    6.80    1.11
   6  -6  -7    5.75    0.93
   6  -6  -7    5.59    1.00
   6  -6  -7    6.22    1.14
   6  -6  -7    5.02    1.03
  -6   6   7    6.12    0.92
  -6   6   7    5.63    1.05
   6   6  -7    5.89    0.84
   6   6  -7    6.55    0.98
   6   6  -7    6.59    0.95
   5  -6  -7   11.73    1.22
   5  -6  -7   13.18    1.35
  -5  -6   7   13.20    0.97
   5  -6  -7   12.73    1.19
   5  -6  -7   14.04    1.19
  -5   6   7   13.40    1.22
   5   6  -7   12.06    1.06
  -5   6   7   11.96    1.14
   5   6  -7   12.84    1.09
   4  -6  -7   10.54    1.13
   4  -6  -7    9.77    1.00
   4  -6  -7   11.55    1.21
  -4  -6   7   10.29    0.85
   4   6  -7    9.46    0.86
   4   6  -7   10.14    0.95
  -4   6   7   12.22    1.16
   4   6  -7   11.32    1.05
  -4   6   7   11.51    1.10
   3  -6  -7    4.69    0.90
   3  -6  -7    4.56    0.86
   3  -6  -7    4.41    0.73
  -3  -6   7    4.29    0.66
   3   6  -7    4.93    0.80
  -3   6   7    5.32    0.93
   3   6  -7    4.79    0.55
  -3   6   7    3.69    0.74
   2  -6  -7    9.40    1.24
   2  -6  -7    9.18    1.00
   2  -6  -7    9.98    0.91
  -2  -6   7    8.61    0.82
  -2   6   7    9.29    0.93
   2   6  -7    8.76    0.54
   2   6  -7    8.47    0.87
  -2   6   7    8.86    0.97
   1  -6  -7    2.45    0.79
  -1  -6   7    3.17    0.64
   1  -6  -7    3.88    0.77
   1  -6  -7    3.57    0.67
  -1   6   7    3.20    0.64
   1   6  -7    3.70    0.70
   0  -6   7    6.92    0.81
   0  -6  -7    9.91    0.87
   0  -6  -7    9.22    1.05
   0  -6  -7    8.19    1.09
   0   6   7   12.30    2.37
   0   6   7    9.08    0.87
   0   6  -7    9.24    0.98
   1  -6   7   18.71    1.35
  -1  -6  -7   21.54    1.52
  -1  -6  -7   17.02    1.09
  -1  -6  -7   16.88    1.42
  -1   6  -7   17.94    1.38
   1   6   7   18.32    1.45
  -2  -6  -7    3.69    0.86
  -2  -6  -7    2.67    0.56
  -2  -6  -7    3.59    0.79
   2  -6   7    2.69    0.73
   2   6   7    3.29    0.77
  -2   6  -7    2.80    0.68
  -3  -6  -7   19.09    1.09
  -3  -6  -7   20.90    1.71
   3  -6   7   20.45    1.61
  -3  -6  -7   23.89    1.71
   3   6   7   22.97    1.76
  -3   6  -7   23.87    1.73
  -4  -6  -7    0.40    0.29
   4  -6   7    0.35    0.41
  -4  -6  -7    0.28    0.48
   4  -6   7    0.65    0.31
   4  -6   7    0.92    0.37
   4   6   7   -0.27    0.42
  -4   6  -7    1.12    0.55
  -5  -6  -7    4.00    0.95
   5  -6   7    2.67    0.61
  -5   6  -7    3.98    1.25
   5   6   7    4.47    1.06
  -5   6  -7    4.61    0.96
  -6  -6  -7    0.56    0.58
  -6   6  -7    0.76    0.65
   6   6   7   -0.41    0.54
  -6   6  -7    1.47    0.77
  -7  -6  -7   16.00    1.80
   7   6   7   12.49    1.92
  -7   6  -7   15.21    2.11
  -7   6  -7   12.79    1.69
  -8  -6  -7    0.34    0.83
   8   6   7    0.72    0.96
  -8   6  -7    1.32    0.71
  -8   6  -7    3.06    1.01
  -8   6  -7    1.58    0.79
  12   7  -7    0.96    0.69
 -12   7   7    1.31    0.78
  12   7  -7    1.16    0.54
  11  -7  -7    1.10    0.75
  11   7  -7    0.45    0.44
  11   7  -7   -0.42    0.48
  11   7  -7   -0.43    0.55
 -11   7   7    0.82    0.50
  10  -7  -7    0.71    0.64
  10   7  -7    0.51    0.50
  10   7  -7    1.22    0.60
  10   7  -7    1.75    0.63
  10   7  -7    0.98    0.50
 -10   7   7    1.32    0.62
   9  -7  -7    5.87    1.11
   9  -7  -7    7.46    1.45
   9   7  -7    8.95    1.21
   9   7  -7    6.32    1.11
   9   7  -7    6.61    0.99
   9   7  -7    7.37    1.17
  -9   7   7    8.25    1.36
   8  -7  -7    5.41    1.08
   8  -7  -7    6.35    1.23
   8  -7  -7    5.72    1.01
   8   7  -7    5.00    0.90
   8   7  -7    4.59    0.85
   8   7  -7    3.39    0.75
   8   7  -7    3.60    0.81
  -8   7   7    3.73    0.87
   7  -7  -7    1.08    0.59
   7  -7  -7    0.91    0.55
   7  -7  -7   -0.05    0.31
   7  -7  -7    0.19    0.47
   7  -7  -7    1.29    0.67
   7   7  -7    0.38    0.33
  -7   7   7    1.97    0.66
   7   7  -7    1.59    0.56
   7   7  -7    0.65    0.40
   7   7  -7    0.93    0.42
   6  -7  -7    0.44    0.57
   6  -7  -7    1.02    0.53
   6  -7  -7    1.18    0.48
   6  -7  -7    0.39    0.44
   6  -7  -7   -0.13    0.37
  -6   7   7    0.59    0.41
   6   7  -7    1.00    0.41
   6   7  -7   -0.02    0.37
   6   7  -7    0.91    0.47
   6   7  -7    0.39    0.63
  -6   7   7    1.31    0.59
   5  -7  -7    0.30    0.47
   5  -7  -7    1.07    0.47
   5  -7  -7    0.05    0.32
   5  -7  -7    0.54    0.39
   5   7  -7    0.50    0.39
  -5   7   7    0.47    0.40
   5   7  -7    0.78    0.43
  -5   7   7    0.78    0.48
  -4  -7   7    4.89    0.66
   4  -7  -7    5.59    0.92
   4  -7  -7    3.61    0.88
   4  -7  -7    4.04    0.80
  -4   7   7    4.80    0.81
  -4   7   7    7.53    1.16
   4   7  -7    6.32    0.85
   3  -7  -7    9.17    0.97
  -3  -7   7    9.33    0.78
   3  -7  -7   10.96    1.11
   3  -7  -7   10.95    1.50
   3   7  -7    9.56    0.73
  -3   7   7    9.82    1.04
   3   7  -7    9.60    0.93
  -3   7   7   12.55    1.13
   2  -7  -7    8.97    1.01
  -2  -7   7    8.68    0.78
   2  -7  -7    8.77    0.90
   2  -7  -7    9.35    1.32
  -2   7   7   10.70    1.50
   2   7  -7    8.10    0.57
  -2   7   7    8.15    0.92
   2   7  -7    7.45    0.85
   1  -7  -7   38.96    2.01
   1  -7  -7   39.03    1.79
  -1  -7   7   33.71    1.64
   1  -7  -7   34.53    2.02
   1   7  -7   35.55    1.78
  -1   7   7   36.51    1.97
  -1   7   7   37.91    1.81
   0  -7  -7   11.73    1.14
   0  -7  -7   11.76    1.24
   0  -7  -7   11.48    0.94
   0  -7   7   10.95    0.99
   0   7   7   13.12    1.21
   0   7  -7   13.44    1.14
  -1  -7  -7    1.39    0.57
  -1  -7  -7    2.01    0.67
   1  -7   7    3.12    0.70
  -1  -7  -7    1.74    0.45
   1   7   7    1.56    0.58
  -1   7  -7    1.67    0.59
  -2  -7  -7   31.38    1.89
  -2  -7  -7   28.41    1.97
  -2  -7  -7   30.37    1.40
   2  -7   7   27.49    1.75
   2   7   7   29.18    1.90
  -2   7  -7   29.38    1.85
   3  -7   7    3.19    0.86
  -3  -7  -7    4.49    0.62
  -3  -7  -7    5.50    0.97
  -3  -7  -7    5.29    1.13
  -3   7  -7    3.61    0.81
   3   7   7    4.31    0.93
  -4  -7  -7    5.18    1.04
   4  -7   7    4.83    0.54
   4  -7   7    5.15    0.62
   4   7   7    3.79    1.45
  -4   7  -7    6.39    1.10
  -4   7  -7    5.43    1.02
  -5  -7  -7   17.60    1.60
   5  -7   7   15.92    1.09
   5  -7   7   18.79    1.11
  -5   7  -7   17.82    2.50
  -5   7  -7   16.92    1.68
   5   7   7   14.14    1.61
  -6  -7  -7    7.68    1.26
   6   7   7    6.27    1.23
  -6   7  -7    9.53    1.39
  -6   7  -7    4.63    1.11
  -7  -7  -7    3.59    1.02
  -7   7  -7    1.95    0.76
   7   7   7    2.67    0.95
  -7   7  -7    2.21    0.83
  -8  -7  -7    3.28    1.12
  -8   7  -7    3.05    1.11
  -8   7  -7    2.74    0.92
   8   7   7    1.27    1.11
  -8   7  -7    2.55    1.16
  12  -8  -7    2.37    1.04
  12   8  -7    3.07    0.62
  12   8  -7    1.98    1.09
  12   8  -7    2.18    0.83
 -12   8   7    1.32    0.68
  11  -8  -7    0.22    0.58
  11   8  -7    0.05    0.50
  11   8  -7   -0.06    0.57
  11   8  -7    1.14    0.46
 -11   8   7    0.33    0.51
  11   8  -7   -1.45    0.72
  10  -8  -7    5.79    1.23
 -10   8   7    4.36    1.03
  10   8  -7    5.13    0.87
  10   8  -7    5.24    1.06
  10   8  -7    6.55    1.18
  10   8  -7    6.57    1.03
   9  -8  -7    6.36    1.24
   9  -8  -7    5.16    1.26
   9   8  -7    8.12    1.14
   9   8  -7    5.59    1.04
  -9   8   7    8.28    1.39
   9   8  -7    6.92    1.36
   9   8  -7    8.59    1.07
   8  -8  -7    0.31    0.53
   8  -8  -7    0.68    0.54
   8  -8  -7    1.76    0.68
   8   8  -7    0.80    0.50
   8   8  -7    0.87    0.52
   8   8  -7    0.49    0.47
  -8   8   7    0.51    0.49
   8   8  -7   -0.04    0.39
   7  -8  -7   18.45    1.59
   7  -8  -7   20.15    1.93
   7  -8  -7   15.76    1.58
   7  -8  -7   18.70    1.58
  -7   8   7   21.82    1.74
   7   8  -7   21.33    1.46
   7   8  -7   20.14    2.04
   7   8  -7   20.33    1.44
   7   8  -7   20.12    1.36
   6  -8  -7    0.28    0.36
   6  -8  -7   -0.08    0.39
   6  -8  -7   -0.29    0.35
   6  -8  -7   -0.44    0.28
   6  -8  -7   -0.09    0.41
   6   8  -7    0.59    0.36
   6   8  -7    1.12    0.47
   6   8  -7    0.06    0.31
  -6   8   7   -0.14    0.31
   6   8  -7    0.14    0.29
  -6   8   7    0.48    0.39
   5  -8  -7   -0.02    0.44
   5  -8  -7   -0.13    0.34
   5  -8  -7   -0.29    0.29
   5  -8  -7   -0.17    0.29
   5  -8  -7   -0.11    0.34
   5   8  -7    0.16    0.29
   5   8  -7   -0.25    0.25
  -5   8   7   -0.14    0.28
  -5   8   7   -0.15    0.33
   4  -8  -7    7.02    1.26
   4  -8  -7    8.05    1.14
   4  -8  -7    7.59    1.09
   4  -8  -7    4.57    0.79
  -4  -8   7    5.50    0.69
   4   8  -7    6.05    0.82
  -4   8   7    7.94    1.16
  -4   8   7    7.90    1.16
   3  -8  -7   17.30    1.30
   3  -8  -7   17.72    1.38
   3  -8  -7   17.37    1.53
  -3  -8   7   16.40    0.99
   3   8  -7   17.36    1.18
   3   8  -7   16.06    1.00
  -3   8   7   16.55    1.31
  -3   8   7   16.83    1.61
  -2  -8   7    0.39    0.28
   2  -8  -7    1.71    0.66
   2  -8  -7    0.66    0.46
   2  -8  -7    1.00    0.43
  -2   8   7    0.82    0.45
   2   8  -7    0.57    0.24
  -2   8   7    0.82    0.41
   2   8  -7    0.19    0.33
   1  -8  -7   10.42    1.10
   1  -8  -7   10.79    1.50
   1  -8  -7    9.07    0.92
  -1  -8   7    9.93    0.88
  -1   8   7   11.52    1.15
  -1   8   7   11.60    1.02
   1   8  -7   10.89    1.01
   0  -8  -7   13.79    1.40
   0  -8   7   13.84    1.07
   0  -8  -7   13.51    1.05
   0  -8  -7   16.05    1.32
   0   8   7   13.61    1.29
   0   8   7   14.82    1.12
   0   8  -7   13.53    1.15
  -1  -8  -7    1.83    0.47
  -1  -8  -7    1.18    0.60
  -1  -8  -7    1.19    0.60
  -1   8  -7    0.35    0.41
   1   8   7    0.60    0.37
   1   8   7    0.81    0.48
   2  -8   7    9.03    1.19
  -2  -8  -7    9.42    0.82
  -2  -8  -7    6.73    1.18
  -2  -8  -7    9.60    1.11
   2   8   7   10.52    1.22
  -2   8  -7   11.84    1.19
  -3  -8  -7    0.31    0.27
  -3  -8  -7    0.91    0.50
  -3  -8  -7   -0.06    0.48
   3   8   7    0.67    0.46
  -3   8  -7   -0.09    0.30
  -4  -8  -7    0.37    0.55
  -4  -8  -7   -0.13    0.44
  -4   8  -7    0.26    0.43
  -4   8  -7    0.42    0.38
   4   8   7   -0.74    0.42
  -5  -8  -7    1.83    0.78
   5  -8   7    2.43    0.50
   5   8   7    0.69    0.70
  -5   8  -7    2.58    0.89
  -5   8  -7    1.53    0.70
   6  -8   7    0.91    0.42
  -6  -8  -7    1.75    0.80
  -6   8  -7    1.17    0.65
  -6   8  -7    1.68    0.75
   6   8   7    0.98    0.74
  -7  -8  -7    2.42    0.87
   7  -8   7    2.52    0.72
  -7   8  -7    1.25    0.71
  -7   8  -7    1.02    0.82
   7   8   7    3.07    0.99
  -7   8  -7    2.05    0.82
  11  -9  -7    8.37    1.55
  11  -9  -7   10.65    2.21
  11   9  -7   12.81    1.44
  11   9  -7    8.72    1.31
  11   9  -7   10.50    1.09
 -11   9   7    8.59    1.50
  10  -9  -7    0.56    0.64
  10  -9  -7    0.83    0.78
  10   9  -7    2.11    0.75
  10   9  -7    1.27    0.58
  10   9  -7    1.57    0.65
  10   9  -7    1.02    0.53
 -10   9   7    1.36    0.75
   9  -9  -7    1.27    0.70
   9  -9  -7    3.07    1.13
   9   9  -7    3.10    0.73
   9   9  -7    2.60    0.68
  -9   9   7    1.27    0.72
   9   9  -7    2.43    0.74
   9   9  -7    2.47    0.70
   8  -9  -7   15.39    2.34
   8  -9  -7   10.80    1.54
   8   9  -7   15.06    1.30
  -8   9   7   13.45    1.49
   8   9  -7   17.47    1.30
   8   9  -7   14.66    1.25
   8   9  -7   13.88    1.21
   7  -9  -7   21.28    2.03
   7  -9  -7   20.38    1.72
   7   9  -7   22.84    1.50
   7   9  -7   24.14    1.45
   7   9  -7   20.13    1.47
  -7   9   7   24.28    3.36
   7   9  -7   22.37    1.38
   6  -9  -7   22.73    1.71
   6  -9  -7   27.58    2.20
   6  -9  -7   26.18    1.77
   6  -9  -7   27.48    1.95
   6  -9  -7   23.83    1.70
  -6   9   7   24.49    1.79
   6   9  -7   22.38    1.89
   6   9  -7   26.08    1.43
   6   9  -7   27.14    1.68
   6   9  -7   21.70    1.40
  -6   9   7   23.44    1.78
   5  -9  -7   38.05    2.20
   5  -9  -7   39.21    2.52
   5  -9  -7   38.40    2.14
   5  -9  -7   36.35    2.05
   5  -9  -7   34.93    2.02
  -5   9   7   36.94    2.48
   5   9  -7   37.59    2.00
   5   9  -7   37.28    1.74
  -5   9   7   39.27    2.21
   4  -9  -7   -0.44    0.30
   4  -9  -7    0.75    0.48
   4  -9  -7    0.01    0.30
   4  -9  -7    0.29    0.37
  -4   9   7    0.55    0.40
   4   9  -7    0.46    0.38
  -4   9   7    0.71    0.42
  -3  -9   7    8.06    0.67
   3  -9  -7    8.79    1.16
   3  -9  -7    6.55    1.23
   3  -9  -7   10.01    1.10
   3   9  -7    7.80    0.76
   3   9  -7    7.47    0.82
  -3   9   7    9.72    1.24
  -3   9   7   10.11    1.09
  -2  -9   7    5.05    0.59
   2  -9  -7    5.14    0.86
   2  -9  -7    5.44    1.10
   2  -9  -7    4.78    0.90
  -2   9   7    7.14    1.13
   2   9  -7    4.55    0.74
  -2   9   7    5.43    0.89
   1  -9  -7   13.10    1.40
  -1  -9   7    7.38    0.75
   1  -9  -7   10.18    1.10
   1  -9  -7   10.27    0.97
   1   9  -7    9.81    0.94
   1   9  -7    8.42    0.59
  -1   9   7   11.03    1.03
  -1   9   7   10.30    1.11
   0  -9   7   38.45    1.80
   0  -9  -7   35.57    2.31
   0  -9  -7   41.00    2.09
   0  -9  -7   39.24    1.81
   0   9   7   40.64    1.88
   0   9   7   40.08    2.16
   0   9  -7   39.77    1.95
  -1  -9  -7    0.50    0.35
  -1  -9  -7   -0.66    0.31
   1  -9   7    0.47    0.37
  -1  -9  -7   -0.12    0.38
   1   9   7    0.06    0.35
  -1   9  -7   -0.32    0.30
   1   9   7    0.12    0.41
  -2  -9  -7   24.27    1.64
   2  -9   7   20.85    1.50
  -2  -9  -7   21.46    1.90
   2   9   7   24.83    1.76
  -2   9  -7   19.00    1.49
  -3  -9  -7    3.22    1.05
  -3  -9  -7    4.87    0.96
  -3  -9  -7    5.35    0.64
  -3   9  -7    3.69    0.91
  -3   9  -7    3.03    1.16
   3   9   7    4.15    0.90
  -4  -9  -7    0.57    0.62
   4  -9   7    0.07    0.24
  -4  -9  -7   -0.83    0.40
   4   9   7   -0.09    0.47
  -4   9  -7    0.93    0.58
  -4   9  -7    0.49    0.48
  -5  -9  -7    5.08    1.09
   5  -9   7    2.24    0.53
  -5   9  -7    3.61    0.99
   5   9   7    4.02    1.26
  -5   9  -7    3.02    0.91
  -6  -9  -7    7.05    1.30
   6  -9   7    6.79    0.95
   6   9   7    8.57    1.42
  -6   9  -7    6.64    1.21
  -6   9  -7    5.67    1.26
  -7  -9  -7   -0.33    0.73
   7  -9   7    0.70    0.47
  -7   9  -7    0.44    0.58
  -7   9  -7   -0.27    0.60
  -7   9  -7   -0.93    0.49
   7   9   7   -0.40    0.76
  11 -10  -7   13.21    2.50
  11 -10  -7    6.80    1.45
  11  10  -7    7.76    1.25
 -11  10   7    9.47    2.54
  11  10  -7    7.40    0.94
  11  10  -7    6.88    1.18
  10 -10  -7    0.21    0.73
  10 -10  -7    0.71    0.80
  10  10  -7    1.57    0.71
 -10  10   7    0.64    0.64
  10  10  -7    1.44    0.77
  10  10  -7    2.65    0.76
   9 -10  -7    0.07    0.52
   9 -10  -7    0.89    0.70
   9  10  -7    0.46    0.43
  -9  10   7    1.17    0.69
   9  10  -7    0.10    0.53
   9  10  -7    0.60    0.50
   9  10  -7    0.80    0.47
   8 -10  -7    2.89    0.97
   8 -10  -7    3.87    1.03
   8  10  -7    3.27    0.67
   8  10  -7    4.03    0.78
  -8  10   7    3.69    0.96
   8  10  -7    2.39    0.63
   7 -10  -7    3.85    0.94
  -7  10   7    3.08    0.85
   7  10  -7    4.15    0.75
   7  10  -7    3.26    0.68
   7  10  -7    4.01    0.75
   7  10  -7    1.90    0.58
   6 -10  -7   32.37    2.03
   6 -10  -7   32.55    2.47
   6 -10  -7   35.13    2.21
   6  10  -7   33.45    1.67
   6  10  -7   30.50    1.53
   6  10  -7   29.84    1.84
  -6  10   7   32.78    2.12
  -6  10   7   30.40    2.09
   6  10  -7   33.82    1.60
   5 -10  -7   15.27    1.40
   5 -10  -7   13.60    1.30
   5 -10  -7   13.55    1.38
   5 -10  -7   16.79    1.74
   5 -10  -7   15.58    1.43
  -5  10   7   16.20    1.45
   5  10  -7   16.00    1.11
   5  10  -7   12.54    0.98
  -5  10   7   16.27    1.48
   4 -10  -7   21.67    1.56
   4 -10  -7   23.69    1.64
   4 -10  -7   21.37    1.65
   4 -10  -7   23.35    1.69
   4 -10  -7   21.65    1.92
  -4  10   7   22.12    1.65
  -4  10   7   20.14    1.58
   4  10  -7   23.01    1.31
   3 -10  -7   20.83    1.47
   3 -10  -7   22.10    1.54
   3 -10  -7   21.40    1.83
   3 -10  -7   24.80    1.67
  -3  10   7   21.52    1.57
  -3  10   7   22.03    1.57
   3  10  -7   21.75    1.26
   2 -10  -7   26.61    1.70
   2 -10  -7   23.18    1.52
  -2 -10   7   22.75    1.11
   2 -10  -7   24.45    1.94
  -2  10   7   25.04    1.67
   2  10  -7   20.93    1.16
  -2  10   7   24.27    1.57
   2  10  -7   22.42    1.34
  -1 -10   7   65.47    2.23
   1 -10  -7   66.02    3.25
   1 -10  -7   68.81    2.64
   1 -10  -7   65.54    2.73
  -1  10   7   72.38    2.94
  -1  10   7   67.71    2.66
   1  10  -7   66.26    2.49
   1  10  -7   64.40    1.99
   0 -10  -7    0.43    0.55
   0 -10  -7    0.74    0.40
   0 -10  -7    0.08    0.38
   0  10  -7    0.05    0.32
   0  10   7   -0.14    0.30
   0  10   7   -0.18    0.31
   1 -10   7    0.54    0.36
  -1 -10  -7    0.36    0.42
  -1 -10  -7   -0.07    0.31
  -1 -10  -7    0.32    0.50
   1  10   7    0.33    0.38
  -1  10  -7    0.18    0.37
   1  10   7    0.22    0.33
  -2 -10  -7    0.18    0.58
  -2 -10  -7    0.70    0.31
  -2 -10  -7    1.01    0.49
   2  10   7    0.25    0.44
  -2  10  -7   -0.06    0.34
  -3 -10  -7    0.02    0.55
  -3 -10  -7    0.68    0.50
  -3  10  -7    0.01    0.32
  -3  10  -7    0.81    0.52
   3  10   7    0.89    0.61
  -4 -10  -7    5.59    1.78
   4 -10   7    5.19    0.66
  -4 -10  -7    4.71    0.99
  -4  10  -7    3.30    0.87
  -4  10  -7    5.93    1.14
   5 -10   7    0.43    0.35
  -5 -10  -7   -0.39    0.49
   5  10   7   -1.03    0.58
  -5  10  -7   -0.42    0.37
  -5  10  -7   -0.45    0.51
   6 -10   7   21.69    1.35
  -6 -10  -7   22.96    1.92
  -6  10  -7   24.01    2.15
  -6  10  -7   18.49    1.95
  -6  10  -7   19.55    1.88
   6  10   7   22.96    2.04
  -7 -10  -7    4.10    1.21
   7 -10   7    3.83    0.77
  -7  10  -7    4.49    1.14
  -7  10  -7    4.70    1.19
  -7  10  -7    1.59    0.86
   7  10   7    4.29    1.24
  10 -11  -7    0.42    0.52
  10 -11  -7   -0.87    0.55
 -10  11   7    0.28    0.48
  10  11  -7    0.32    0.59
  10  11  -7    0.43    0.54
   9 -11  -7    8.07    1.64
   9 -11  -7    4.71    1.14
   9  11  -7    4.84    0.94
   9  11  -7    5.27    0.94
  -9  11   7    4.96    1.24
   9  11  -7    3.59    0.72
   9  11  -7    4.70    0.92
   8 -11  -7    6.39    1.37
   8 -11  -7    8.70    1.42
  -8  11   7   11.47    1.75
   8  11  -7    8.36    1.05
   8  11  -7    8.93    0.99
   8  11  -7    8.59    1.08
   8  11  -7   10.55    1.10
   7 -11  -7    4.35    1.00
  -7  11   7    4.92    1.15
   7  11  -7    4.74    0.73
   7  11  -7    5.39    0.84
   7  11  -7    4.22    0.71
   7  11  -7    6.41    0.95
   6 -11  -7    6.42    1.23
  -6  11   7    7.79    1.22
   6  11  -7    8.39    0.80
   6  11  -7    7.10    0.77
   6  11  -7    5.19    0.76
   6  11  -7    5.45    0.99
  -6  11   7    5.48    1.07
   5 -11  -7    4.37    0.98
   5 -11  -7    3.62    0.85
   5 -11  -7    3.70    1.05
  -5  11   7    2.43    0.73
   5  11  -7    2.73    0.56
   5  11  -7    3.76    0.60
  -5  11   7    3.70    0.88
   4 -11  -7    2.82    0.68
   4 -11  -7    2.80    0.93
   4 -11  -7    3.31    0.80
   4 -11  -7    2.18    0.66
   4  11  -7    1.93    0.48
  -4  11   7    1.59    0.64
   3 -11  -7    1.29    0.62
   3 -11  -7    1.41    0.79
   3 -11  -7    1.31    0.57
  -3  11   7    1.20    0.52
   3  11  -7    1.30    0.45
  -3  11   7    0.98    0.54
   2 -11  -7   20.50    1.47
   2 -11  -7   17.36    1.74
   2 -11  -7   17.37    1.40
  -2  11   7   18.63    1.43
   2  11  -7   18.22    1.36
   2  11  -7   19.19    1.20
  -2  11   7   20.02    1.55
   1 -11  -7    6.02    1.00
  -1 -11   7    4.32    0.60
   1 -11  -7    3.68    0.76
   1 -11  -7    1.83    0.77
   1  11  -7    4.71    0.78
   1  11  -7    3.31    0.58
  -1  11   7    3.50    0.75
  -1  11   7    5.39    0.96
   0 -11   7    2.69    0.57
   0 -11  -7    2.92    0.62
   0 -11  -7    3.52    0.78
   0 -11  -7    2.66    0.94
   0  11   7    2.11    0.65
   0  11   7    3.36    0.68
   0  11  -7    3.04    0.65
  -1 -11  -7    7.52    0.84
   1 -11   7    8.09    0.88
  -1 -11  -7    8.15    1.60
  -1 -11  -7    6.24    1.06
   1  11   7    8.66    0.90
  -1  11  -7    6.53    0.99
   1  11   7    7.06    1.13
  -2 -11  -7   66.99    3.42
  -2 -11  -7   59.22    2.14
  -2 -11  -7   59.64    3.38
  -2  11  -7   63.82    3.15
   2  11   7   64.14    2.99
  -2  11  -7   60.87    2.75
  -3 -11  -7    4.60    1.57
  -3 -11  -7    7.03    1.04
  -3  11  -7    8.57    1.22
  -3  11  -7    7.48    1.25
   3  11   7    6.68    1.14
   4 -11   7    2.85    0.53
  -4 -11  -7    3.57    0.84
  -4 -11  -7    2.31    0.97
  -4  11  -7    2.25    0.74
  -4  11  -7    3.09    0.85
   4  11   7    2.50    0.69
  -5 -11  -7    0.27    0.54
   5 -11   7    0.43    0.38
  -5  11  -7   -0.15    0.47
  -5  11  -7   -0.46    0.43
   5  11   7    0.56    0.60
   6 -11   7    7.92    1.01
  -6 -11  -7    7.13    1.25
  -6  11  -7    6.26    1.27
   6  11   7    7.92    1.48
  -6  11  -7    6.30    1.22
  -6  11  -7    6.36    1.27
  10 -12  -7    0.83    0.75
  10  12  -7    0.02    0.49
 -10  12   7    0.99    0.72
  10  12  -7    1.96    0.63
  10  12  -7    1.44    0.65
   9 -12  -7    0.12    0.60
   9 -12  -7    0.87    0.78
   9  12  -7    1.21    0.57
   9  12  -7    1.42    0.48
  -9  12   7    0.84    0.56
   8 -12  -7    7.74    1.63
   8  12  -7    7.56    1.06
   8  12  -7    9.14    1.00
   8  12  -7    8.90    0.98
   8  12  -7   12.60    1.20
  -8  12   7   10.23    1.49
   7 -12  -7   -0.10    0.40
   7 -12  -7    0.06    0.50
  -7  12   7   -0.04    0.39
   7  12  -7    0.32    0.32
   7  12  -7   -0.56    0.32
   7  12  -7    0.22    0.31
   6 -12  -7   -0.09    0.43
   6 -12  -7    0.26    0.77
   6  12  -7   -0.20    0.26
   6  12  -7   -0.57    0.26
  -6  12   7    0.23    0.43
   6  12  -7    0.16    0.84
   5 -12  -7   22.11    1.74
  -5  12   7   22.32    1.76
   5  12  -7   22.47    1.23
  -5  12   7   22.16    1.97
   5  12  -7   21.68    1.16
   4 -12  -7   16.96    1.44
   4 -12  -7   17.21    1.82
   4 -12  -7   16.04    1.46
  -4  12   7   17.12    1.54
   4  12  -7   17.30    1.06
  -4  12   7   17.29    1.50
   3 -12  -7   10.21    1.27
   3 -12  -7   12.13    1.86
   3 -12  -7   13.23    1.26
   3  12  -7   12.63    0.93
  -3  12   7   11.89    1.24
  -3  12   7   12.45    1.29
   2 -12  -7   -0.07    0.43
   2 -12  -7    0.59    0.41
   2 -12  -7   -0.50    0.32
  -2  12   7    0.62    0.46
  -2  12   7    0.55    0.45
   2  12  -7   -0.04    0.27
   1 -12  -7   39.94    2.69
   1 -12  -7   34.79    1.89
  -1  12   7   39.96    2.15
  -1  12   7   39.62    2.02
   1  12  -7   35.62    1.72
   1  12  -7   32.55    1.54
   0 -12  -7   17.73    1.85
   0 -12  -7   17.61    1.28
   0 -12   7   15.71    1.02
   0  12   7   17.02    1.29
   0  12  -7   15.93    1.21
   0  12   7   15.86    1.38
  -1 -12  -7    9.56    1.09
  -1 -12  -7   13.76    2.02
   1 -12   7   10.43    0.78
  -1 -12  -7    9.91    0.95
  -1  12  -7   12.38    1.17
   1  12   7   12.89    1.09
   1  12   7   12.43    1.24
  -2 -12  -7    4.39    0.68
  -2 -12  -7    5.40    1.46
  -2 -12  -7    5.22    1.35
   2 -12   7    5.12    0.67
  -2  12  -7    4.44    0.91
  -2  12  -7    3.91    0.84
   2  12   7    5.48    1.06
   2  12   7    4.87    0.92
  -3 -12  -7   -0.34    0.54
   3 -12   7    0.82    0.30
  -3 -12  -7   -0.23    0.30
  -3 -12  -7    0.61    0.57
  -3  12  -7    0.20    0.40
   3  12   7    1.36    0.59
  -3  12  -7    0.41    0.41
  -4 -12  -7    5.52    1.37
   4 -12   7    4.43    0.69
  -4 -12  -7    2.33    0.78
   4  12   7    5.14    1.09
  -4  12  -7    5.57    1.24
  -4  12  -7    4.64    1.00
  -5 -12  -7   -0.08    0.53
  -5  12  -7    0.14    0.45
  -5  12  -7   -0.86    0.39
   5  12   7    0.44    0.56
  -5  12  -7   -0.02    0.54
   6 -12   7    1.24    0.65
   6  12   7   -0.50    0.68
  -6  12  -7    0.87    0.68
  -6  12  -7    0.60    1.14
  -6  12  -7    0.89    0.76
   9 -13  -7    1.07    0.89
   9 -13  -7    0.43    0.73
  -9  13   7    0.78    0.67
   9  13  -7    0.25    0.46
   9  13  -7   -1.05    0.49
   9  13  -7    1.16    0.55
   8 -13  -7    0.38    0.55
   8 -13  -7   -0.12    0.81
   8  13  -7    0.74    0.41
   8  13  -7   -1.03    0.83
  -8  13   7   -0.49    0.45
   8  13  -7    0.38    0.40
   7 -13  -7    1.67    0.79
   7 -13  -7    0.31    0.61
   7  13  -7    2.69    0.51
   7  13  -7    0.92    0.40
  -7  13   7    1.61    0.80
   7  13  -7    1.16    0.45
   7  13  -7    1.23    0.62
   6 -13  -7    1.67    0.95
   6 -13  -7    2.00    0.73
   6  13  -7    0.86    0.51
   6  13  -7    1.15    0.42
   6  13  -7    1.52    0.38
   6  13  -7    0.82    0.73
  -6  13   7    0.72    0.67
   5 -13  -7    0.53    0.62
   5 -13  -7    0.26    0.45
  -5  13   7   -0.21    0.42
   5  13  -7    0.49    0.31
  -5  13   7    1.85    0.63
   4 -13  -7    2.06    0.92
   4 -13  -7    1.91    0.69
   4  13  -7    2.19    0.46
  -4  13   7    2.40    0.71
   3 -13  -7    0.93    0.51
   3 -13  -7    1.55    0.58
   3 -13  -7    1.07    1.22
   3  13  -7    2.47    0.49
  -3  13   7    1.52    0.63
  -3  13   7    0.69    0.46
   2 -13  -7    0.31    0.68
   2 -13  -7    1.13    0.49
  -2  13   7    1.27    0.53
   2  13  -7    0.59    0.33
  -2  13   7    0.08    0.34
   1 -13  -7   -0.76    0.25
   1 -13  -7    0.40    0.99
   1  13  -7   -0.33    0.24
  -1  13   7   -0.24    0.35
  -1  13   7   -0.15    0.39
   0 -13  -7    2.79    0.97
   0 -13   7    2.56    0.59
   0 -13  -7    2.05    0.61
   0  13   7    2.27    0.72
   0  13  -7    2.04    0.54
   0  13   7    3.41    0.73
  -1 -13  -7    0.50    0.71
   1 -13   7    0.31    0.35
  -1 -13  -7    0.74    0.56
  -1 -13  -7    0.43    0.38
   1  13   7    0.73    0.57
  -1  13  -7   -0.30    0.32
  -1  13  -7    0.78    0.57
   1  13   7    0.26    0.35
  -2 -13  -7   -0.16    0.40
   2 -13   7   -0.25    0.27
  -2 -13  -7    0.47    0.35
  -2 -13  -7    0.06    0.56
  -2  13  -7   -0.73    0.34
   2  13   7    0.10    0.28
   2  13   7   -0.80    0.40
  -2  13  -7    0.02    0.40
  -3 -13  -7    3.44    1.18
  -3 -13  -7    2.25    0.67
   3 -13   7    3.37    0.58
   3  13   7    2.03    0.70
  -3  13  -7    3.11    0.84
  -3  13  -7    3.81    0.97
  -4 -13  -7    4.61    0.94
  -4 -13  -7    1.64    0.91
   4  13   7    1.84    0.76
  -4  13  -7    1.37    0.70
  -4  13  -7    3.13    0.88
  -4  13  -7    2.48    0.84
   5 -13   7    0.49    0.40
  -5 -13  -7   -0.20    0.57
  -5  13  -7   -0.19    0.38
  -5  13  -7    0.80    0.67
  -5  13  -7    0.21    0.55
   5  13   7    1.81    0.75
   9 -14  -7    1.87    1.01
   9 -14  -7    1.64    1.02
  -9  14   7    1.16    0.75
   9  14  -7    4.88    1.37
   9  14  -7    1.65    0.58
   9  14  -7    2.99    0.78
   8 -14  -7    1.20    0.72
   8 -14  -7    0.70    0.73
   8  14  -7   -0.28    0.33
   8  14  -7   -0.79    0.41
  -8  14   7    0.13    0.47
   8  14  -7    0.89    0.58
   7 -14  -7    1.36    0.73
   7 -14  -7    2.19    1.01
  -7  14   7    1.02    0.62
   7  14  -7    0.99    0.63
   6 -14  -7    0.57    0.54
   6 -14  -7    0.46    0.63
   6  14  -7    1.09    0.31
  -6  14   7    0.50    0.58
   6  14  -7   -0.39    0.46
   5 -14  -7    3.82    1.19
   5 -14  -7    5.28    1.05
  -5  14   7    3.42    0.89
   5  14  -7    5.22    0.53
  -5  14   7    6.14    1.13
   4 -14  -7    6.70    1.11
   4 -14  -7    2.97    1.01
  -4  14   7    6.70    1.12
   4  14  -7    5.59    0.61
  -4  14   7    7.06    1.19
   3 -14  -7    0.43    0.39
   3 -14  -7    1.12    0.67
  -3  14   7    0.96    0.57
  -3  14   7    0.53    0.49
   2 -14  -7    1.10    0.76
   2 -14  -7    1.40    0.57
   2  14  -7    1.63    0.43
  -2  14   7    1.50    0.64
  -2  14   7    0.56    0.43
   1 -14  -7    3.74    0.79
   1 -14  -7    3.21    0.75
   1 -14  -7    3.11    1.04
   1  14  -7    2.84    0.59
  -1  14   7    2.82    0.75
  -1  14   7    3.06    0.81
   0 -14  -7    0.20    0.33
   0 -14   7   -0.10    0.29
   0 -14  -7    0.17    0.39
   0 -14  -7   -0.52    0.40
   0  14   7   -0.05    0.39
   0  14   7    0.15    0.46
   0  14  -7   -0.06    0.37
   0  14  -7    0.15    0.34
  -1 -14  -7    0.28    0.56
  -1 -14  -7    1.33    0.51
   1 -14   7    0.79    0.51
  -1 -14  -7    0.50    0.43
  -1  14  -7    0.85    0.53
   1  14   7    0.76    0.52
  -1  14  -7    0.78    0.47
   1  14   7    0.17    0.37
   2 -14   7    5.03    0.74
  -2 -14  -7    6.15    1.53
  -2 -14  -7    4.32    0.85
  -2 -14  -7    3.33    0.63
  -2  14  -7    4.74    0.96
   2  14   7    5.19    0.78
  -2  14  -7    2.76    0.79
   2  14   7    5.04    0.89
   3 -14   7    0.13    0.33
  -3 -14  -7   -0.19    0.58
  -3 -14  -7    0.84    0.55
   3  14   7    0.44    0.56
  -3  14  -7   -0.22    0.45
  -3  14  -7    0.53    0.43
  -4 -14  -7    0.33    0.56
   4 -14   7    1.00    0.54
  -4 -14  -7    0.47    0.68
  -4  14  -7    0.05    0.53
  -4  14  -7   -0.75    0.52
  -4  14  -7    1.11    0.64
   4  14   7    1.11    0.76
   5 -14   7    0.22    0.44
  -5 -14  -7    0.45    0.74
   5  14   7   -0.37    0.48
  -5  14  -7    0.22    0.60
  -5  14  -7    0.28    0.64
  -5  14  -7    1.99    0.77
   8 -15  -7    6.07    1.28
   8 -15  -7    3.82    1.27
   8  15  -7    5.75    0.98
  -8  15   7    4.68    1.49
   7 -15  -7   -0.11    0.55
   7 -15  -7    0.86    0.62
   7  15  -7   -0.29    0.55
  -7  15   7   -0.17    0.35
   6 -15  -7    6.62    1.47
   6 -15  -7    9.06    1.46
  -6  15   7    5.44    1.17
   5 -15  -7    0.78    0.55
   5 -15  -7    0.90    0.78
  -5  15   7    0.81    0.51
  -5  15   7    1.54    0.81
   4 -15  -7    9.70    2.00
   4 -15  -7    4.94    0.95
  -4  15   7    7.93    1.30
  -4  15   7    5.08    1.06
   3 -15  -7    6.09    1.18
   3 -15  -7    4.54    1.15
  -3  15   7    4.74    1.02
  -3  15   7    6.97    1.13
   2 -15  -7    2.24    0.96
   2 -15  -7    1.40    0.54
  -2  15   7    2.52    0.74
  -2  15   7    1.30    0.58
   2  15  -7    0.35    0.56
   1 -15  -7    4.95    0.96
   1 -15  -7    5.58    1.33
   1 -15  -7    5.10    0.87
  -1  15   7    5.94    1.01
  -1  15   7    4.23    0.88
   1  15  -7    5.86    0.77
   1  15  -7    5.50    1.21
   0 -15  -7    0.68    0.50
   0 -15  -7    0.82    0.74
   0 -15   7    1.00    0.51
   0  15   7    1.20    0.42
   0  15   7    0.11    0.53
   0  15  -7    1.38    0.60
   0  15  -7    0.60    0.49
  -1 -15  -7    9.21    1.83
  -1 -15  -7    9.56    1.16
   1 -15   7    8.58    0.95
  -1 -15  -7    9.12    1.15
  -1  15  -7   10.70    1.11
  -1  15  -7   10.83    1.56
   1  15   7   11.07    1.46
   1  15   7    9.87    1.03
   2 -15   7    0.65    0.43
  -2 -15  -7    0.61    0.43
  -2 -15  -7    0.43    0.68
  -2 -15  -7    0.66    0.49
  -2  15  -7   -0.32    0.37
  -2  15  -7    0.23    0.58
  -2  15  -7   -0.31    0.33
   2  15   7   -0.72    0.47
   2  15   7    0.64    0.41
  -3 -15  -7    0.19    0.55
   3 -15   7    0.96    0.46
  -3 -15  -7    2.04    1.02
   3  15   7   -0.02    0.48
  -3  15  -7    0.02    0.45
  -3  15  -7    0.62    0.47
  -3  15  -7    0.93    0.73
  -4 -15  -7    0.81    0.65
   4 -15   7    0.80    0.43
  -4 -15  -7   -0.42    0.48
  -4  15  -7   -0.18    0.64
  -4  15  -7    0.31    0.71
   7 -16  -7    0.14    0.60
   7 -16  -7   -1.42    0.60
  -7  16   7   -0.10    0.37
   7  16  -7   -0.44    0.43
   6 -16  -7    0.62    0.73
   6 -16  -7    0.99    0.72
  -6  16   7    2.16    0.78
   6  16  -7    3.25    0.82
   5 -16  -7    1.24    0.62
   5 -16  -7    1.16    1.07
  -5  16   7    1.28    0.72
   5  16  -7    1.81    0.66
   4 -16  -7    1.23    0.64
   4 -16  -7    1.10    0.80
  -4  16   7    2.08    0.69
  -4  16   7    1.72    0.73
   4  16  -7    1.12    0.67
   3 -16  -7   -0.08    0.41
   3 -16  -7    0.40    0.71
   3  16  -7   -0.56    0.41
  -3  16   7    0.68    0.53
  -3  16   7    0.26    0.41
   2 -16  -7   -0.25    0.44
   2 -16  -7    0.10    0.45
   2  16  -7    0.58    0.50
  -2  16   7    1.25    0.57
  -2  16   7    1.18    0.57
   1 -16  -7    7.55    1.72
   1 -16  -7   11.56    1.16
  -1  16   7    8.75    1.23
  -1  16   7    9.84    1.33
   1  16  -7    9.87    0.85
   1  16  -7    9.38    1.49
   1  16  -7    9.89    0.87
   0 -16  -7    2.37    0.65
   0 -16  -7    0.13    0.56
   0 -16   7    0.93    0.52
   0 -16  -7    1.68    0.70
   0  16  -7    1.12    0.47
   0  16   7    1.38    0.61
   0  16  -7    1.37    0.48
   0  16   7    1.01    0.49
   0  16  -7    0.19    0.52
  -1 -16  -7    3.69    1.14
  -1 -16  -7    4.02    0.82
   1 -16   7    4.29    0.80
  -1  16  -7    3.63    0.78
  -1  16  -7    4.60    0.85
   1  16   7    4.24    0.79
  -1  16  -7    4.07    1.01
  -2 -16  -7    8.56    1.13
  -2 -16  -7   10.87    1.99
  -2  16  -7    7.13    1.14
   2  16   7    5.63    1.73
  -2  16  -7   10.20    1.64
  -2  16  -7   11.55    1.19
   2  16   7    9.64    0.98
  -3 -16  -7    4.09    1.00
  -3 -16  -7    1.65    0.91
  -3  16  -7    3.26    0.85
  -3  16  -7    1.76    1.03
   6 -17  -7    0.55    0.60
   6 -17  -7    1.47    0.73
  -6  17   7   -0.81    0.41
   6  17  -7    0.19    0.58
   5 -17  -7    0.27    0.85
   5 -17  -7    0.39    0.61
   5  17  -7   -0.56    0.51
   4 -17  -7   -0.03    0.59
   4 -17  -7    0.69    0.73
  -4  17   7    1.23    0.51
   4  17  -7    1.59    0.65
   3 -17  -7   -1.03    0.46
   3 -17  -7   -0.13    0.55
  -3  17   7    0.26    0.57
   3  17  -7   -0.29    0.48
  -3  17   7   -0.61    0.38
   2 -17  -7    3.83    1.22
   2 -17  -7    3.98    0.81
  -2  17   7    2.38    0.83
   2  17  -7    4.47    1.00
  -2  17   7    4.73    0.95
   1 -17  -7   17.03    2.57
   1 -17  -7   21.59    1.84
  -1  17   7   17.95    1.55
   1  17  -7   19.24    1.90
   1  17  -7   18.48    1.05
   0 -17  -7    0.62    0.76
   0 -17  -7    0.82    0.57
   0 -17  -7    0.32    0.83
   0 -17   7   -0.09    0.45
   0  17  -7    0.20    0.33
   0  17  -7   -0.35    0.50
   0  17   7   -0.44    0.32
   0  17   7   -0.90    0.38
   0  17  -7    0.63    0.40
  -1 -17  -7    6.09    0.94
  -1 -17  -7    7.50    1.70
   1 -17   7    7.30    1.09
  -1 -17  -7    7.64    1.24
  -1  17  -7    6.60    0.97
  -1  17  -7    7.55    1.48
  -1  17  -7    9.14    0.99
   1  17   7   10.30    1.07
   1  17   7    6.61    1.12
   2 -17   7    3.31    0.81
  -2 -17  -7    0.97    0.90
  -2  17  -7    2.65    0.75
  -2  17  -7    2.94    1.04
   2  17   7    3.75    0.67
  -2  17  -7    1.31    0.95
   4 -18  -7    0.31    0.72
   4 -18  -7    0.62    0.70
   4  18  -7   -0.42    0.50
  -4  18   7   -0.09    0.53
   3 -18  -7    2.69    1.11
   3  18  -7    3.00    0.87
  -3  18   7    3.51    0.93
  -3  18   7    2.78    0.81
   2 -18  -7    2.90    0.82
   2 -18  -7    0.62    0.69
   2  18  -7   -0.12    0.46
  -2  18   7    2.19    0.95
  -2  18   7    0.35    0.54
   1 -18  -7    3.05    1.19
   1  18  -7    2.11    0.45
   1  18  -7    1.41    0.77
  -1  18   7    1.82    0.70
  -1  18   7    2.08    0.71
   0 -18  -7    1.05    0.65
   0 -18   7   -0.17    0.59
   0  18  -7    0.08    0.39
   0  18  -7    0.80    0.41
   0  18  -7    0.36    0.54
   0  18   7    1.10    0.53
  12   0  -8    0.56    0.73
  12   0  -8    0.77    0.66
  11   0  -8    2.44    0.88
  11   0  -8    3.03    0.90
  11   0  -8    1.78    0.78
 -11   0   8    2.77    0.90
  10   0  -8   17.25    1.61
  10   0  -8   14.14    1.49
 -10   0   8   13.54    1.40
  10   0  -8   16.04    1.75
  10   0  -8   15.29    1.42
   9   0  -8    0.53    0.47
   9   0  -8    0.10    0.45
   9   0  -8   -0.25    0.40
   9   0  -8    0.36    0.51
  -9   0   8   -0.18    0.37
  -8   0   8   31.26    2.42
   8   0  -8   24.76    1.78
   8   0  -8   25.97    1.78
   8   0  -8   25.12    1.88
   8   0  -8   25.52    1.78
   7   0  -8    3.93    0.84
   7   0  -8    3.89    0.81
   7   0  -8    3.26    0.75
  -7   0   8    6.48    1.09
   7   0  -8    3.58    0.72
  -7   0   8    4.24    0.90
   6   0  -8  118.38    4.07
   6   0  -8  115.16    3.84
  -6   0   8  119.33    3.91
   6   0  -8  113.86    3.92
  -6   0   8  115.03    3.89
   5   0  -8   67.61    2.83
  -5   0   8   67.42    2.73
  -5   0   8   68.03    2.75
   5   0  -8   68.50    2.69
   4   0  -8   10.40    0.99
  -4   0   8    9.79    1.00
   4   0  -8    9.84    1.09
   3   0  -8    6.37    0.95
  -3   0   8    4.76    0.88
   3   0  -8    4.38    0.79
   3   0  -8    4.17    0.68
   2   0  -8    4.40    0.60
   2   0  -8    4.10    0.70
  -2   0   8    4.90    0.84
   2   0  -8    4.45    0.81
   1   0  -8    2.67    0.45
  -1   0   8    3.50    0.73
   1   0  -8    3.43    0.77
   1   0  -8    2.48    0.65
   0   0  -8   37.08    1.84
   0   0   8   37.33    2.03
   0   0  -8   35.05    1.34
   0   0  -8   38.48    2.07
   1   0   8    5.02    0.63
  -1   0  -8    2.35    0.68
   1   0   8    3.57    0.85
  -1   0  -8    3.67    0.67
   2   0   8   34.13    2.13
   2   0   8   35.02    1.48
  -2   0  -8   34.86    1.81
  -2   0  -8   36.44    2.17
   3   0   8    7.94    1.23
   3   0   8   10.37    0.88
  -3   0  -8   13.75    1.43
  -4   0  -8    4.06    0.98
   4   0   8    5.28    1.11
   5   0   8    5.35    1.19
  -5   0  -8    5.36    1.22
  -6   0  -8   16.48    1.34
  -6   0  -8   15.76    1.75
  -7   0  -8    2.85    0.76
  -7   0  -8    2.72    0.88
  -8   0  -8    1.83    0.62
  -8   0  -8    2.35    0.98
 -12  -1   8    1.25    0.54
  12  -1  -8    1.99    0.83
  12  -1  -8    2.76    1.05
  12  -1  -8    3.13    1.22
  12   1  -8   -0.02    0.78
 -12   1   8    0.18    0.58
  12   1  -8    0.04    0.82
  12   1  -8    0.34    0.57
 -11  -1   8    0.39    0.43
  11  -1  -8    0.30    0.53
  11  -1  -8   -0.17    0.56
  11  -1  -8    0.24    0.62
  11   1  -8    0.25    0.58
  11   1  -8   -0.75    0.44
  11   1  -8    0.82    0.58
 -11   1   8   -0.31    0.42
  10  -1  -8    3.04    0.90
  10  -1  -8    3.66    0.95
 -10  -1   8    4.06    0.96
  10  -1  -8    3.32    0.88
 -10   1   8    3.60    0.91
  10   1  -8    2.61    0.87
  10   1  -8    2.38    0.70
  10   1  -8    3.78    1.00
  10   1  -8    3.63    0.90
   9  -1  -8    3.38    0.75
   9  -1  -8    4.45    0.90
  -9  -1   8    3.17    0.76
   9  -1  -8    3.58    0.81
   9  -1  -8    4.28    1.04
   9   1  -8    4.78    1.03
   9   1  -8    3.68    0.80
  -9   1   8    5.06    1.05
   9   1  -8    3.91    0.94
   9   1  -8    4.68    1.02
   8  -1  -8    2.29    0.76
  -8  -1   8    1.07    0.52
   8  -1  -8    1.83    0.62
   8  -1  -8    1.41    0.51
   8  -1  -8    1.04    0.49
   8   1  -8    3.04    0.78
   8   1  -8    2.04    0.67
   8   1  -8    2.11    0.63
  -8   1   8    2.42    0.67
   8   1  -8    2.81    0.67
   7  -1  -8    0.23    0.76
   7  -1  -8    1.02    0.45
   7  -1  -8   -0.17    0.33
  -7  -1   8   -0.15    0.29
   7  -1  -8    0.04    0.40
  -7  -1   8   -0.31    0.31
  -7   1   8    0.20    0.40
   7   1  -8   -0.56    0.32
   7   1  -8    0.81    0.41
   7   1  -8   -0.05    0.36
   7   1  -8    0.85    0.52
  -7   1   8   -0.32    0.35
  -6  -1   8    8.85    1.22
  -6  -1   8    5.40    0.91
   6  -1  -8    7.04    1.05
   6  -1  -8    7.17    1.17
   6  -1  -8    6.08    1.04
   6   1  -8    6.13    1.00
  -6   1   8    5.53    0.99
   6   1  -8    5.25    1.01
  -6   1   8    5.35    0.88
   5  -1  -8    6.44    0.91
   5  -1  -8    8.54    1.25
  -5  -1   8    9.37    1.24
  -5   1   8    8.62    0.97
   5   1  -8    7.48    1.03
   5   1  -8    8.49    0.93
  -5   1   8    8.26    1.07
   4  -1  -8    3.25    0.63
   4  -1  -8    4.08    0.81
   4  -1  -8    3.58    0.69
  -4  -1   8    3.09    0.63
  -4   1   8    3.37    0.72
  -4   1   8    5.14    0.93
   4   1  -8    3.54    0.71
   4   1  -8    2.05    0.58
   3  -1  -8   11.85    0.95
   3  -1  -8   13.85    1.13
  -3  -1   8   13.15    1.14
   3  -1  -8   12.12    1.17
   3   1  -8   12.77    1.17
  -3   1   8   16.71    1.29
   3   1  -8   12.23    1.08
   3   1  -8   13.40    0.90
   2  -1  -8   13.85    1.10
   2  -1  -8   13.82    1.49
   2  -1  -8   14.92    0.97
  -2  -1   8   12.55    1.12
   2   1  -8   13.94    1.12
   2   1  -8   13.47    0.77
   2   1  -8   12.88    1.19
  -2   1   8   13.69    1.19
   1  -1  -8   20.83    1.80
   1  -1  -8   22.27    1.39
  -1  -1   8   23.56    1.56
   1  -1  -8   22.71    1.16
  -1   1   8   24.55    1.62
   1   1  -8   25.13    0.96
   1   1  -8   23.98    1.48
   1   1  -8   23.91    1.60
   0  -1   8    4.51    0.82
   0  -1  -8    5.61    1.30
   0  -1  -8    5.29    0.59
   0  -1  -8    6.78    1.09
   0   1  -8    4.63    0.90
   0   1  -8    6.18    0.96
   0   1   8    4.62    0.84
  -1  -1  -8    2.27    0.52
  -1  -1  -8    3.81    0.90
   1  -1   8    2.47    0.36
   1  -1   8    5.19    1.00
  -1  -1  -8    2.73    0.62
   1   1   8    5.46    1.03
  -1   1  -8    1.97    0.64
   1   1   8    2.69    0.53
  -2  -1  -8    2.75    0.77
  -2  -1  -8    2.88    0.63
   2  -1   8    2.43    0.43
   2  -1   8    3.48    0.88
  -2   1  -8    3.39    0.87
   2   1   8    3.32    0.87
   2   1   8    2.88    0.53
   3  -1   8    3.91    0.60
  -3  -1  -8    4.00    0.74
   3  -1   8    3.87    1.01
  -3  -1  -8    2.82    0.86
  -3   1  -8    5.33    1.14
   3   1   8    3.16    0.84
   4  -1   8    7.28    1.33
  -4  -1  -8    5.60    1.21
  -4  -1  -8    6.89    0.94
   4   1   8    5.70    1.10
  -4   1  -8    5.35    1.11
  -5  -1  -8   11.91    1.11
   5  -1   8   11.01    1.67
  -5  -1  -8   12.59    1.78
  -5   1  -8   11.28    1.65
   5   1   8   10.41    1.57
  -6  -1  -8    1.17    0.50
  -6  -1  -8    1.63    0.57
  -6  -1  -8    2.34    0.87
   6   1   8    1.84    0.79
  -6   1  -8    0.86    0.56
  -6   1  -8    0.34    0.51
  -7  -1  -8    9.36    1.14
  -7  -1  -8    8.23    1.47
  -7  -1  -8    9.07    1.10
  -7   1  -8    8.53    1.15
  -7   1  -8    7.17    1.44
  -8  -1  -8    3.87    1.11
  -8  -1  -8    4.16    0.91
  -8  -1  -8    5.37    0.92
  -8   1  -8    5.37    1.35
  -8   1  -8    5.28    1.06
 -12  -2   8    1.79    0.69
  12  -2  -8    2.33    0.96
  12  -2  -8    2.21    1.03
  12   2  -8    2.80    0.94
  12   2  -8    2.88    1.01
  12   2  -8    3.50    1.03
 -12   2   8    2.17    0.76
  11  -2  -8   -0.61    0.59
  11  -2  -8    0.28    0.58
 -11  -2   8    0.25    0.51
  11  -2  -8    0.24    0.52
 -11   2   8   -0.14    0.39
  11   2  -8    1.28    0.66
  11   2  -8    0.15    0.54
  11   2  -8    0.68    0.46
  11   2  -8   -0.01    0.53
 -10  -2   8    0.93    0.54
  10  -2  -8    0.09    0.51
  10  -2  -8    1.04    0.63
  10   2  -8    1.07    0.64
 -10   2   8    1.11    0.65
  10   2  -8    1.19    0.57
  10   2  -8    2.01    0.58
  10   2  -8   -0.21    0.42
  -9  -2   8   10.76    1.40
   9  -2  -8    8.18    1.19
   9  -2  -8    7.26    1.30
   9  -2  -8    7.68    1.33
   9  -2  -8    9.17    1.43
  -9   2   8    8.07    1.26
   9   2  -8    7.17    1.26
   9   2  -8    8.84    1.63
   9   2  -8   11.34    1.15
   9   2  -8   11.22    1.29
   8  -2  -8   23.96    1.87
   8  -2  -8   23.71    1.79
  -8  -2   8   22.47    1.62
   8  -2  -8   22.83    1.65
   8  -2  -8   23.94    1.78
   8   2  -8   22.17    1.60
   8   2  -8   22.27    1.63
   8   2  -8   20.87    1.69
  -8   2   8   23.90    1.71
   8   2  -8   21.11    1.64
   7  -2  -8    1.12    0.52
   7  -2  -8    0.62    0.43
   7  -2  -8    1.42    0.67
   7  -2  -8    0.04    0.39
  -7   2   8   -0.08    0.34
   7   2  -8   -0.12    0.31
   7   2  -8   -0.15    0.36
   7   2  -8    0.17    0.39
  -7   2   8    0.24    0.39
   7   2  -8   -0.55    0.31
  -6  -2   8    1.05    0.44
   6  -2  -8    0.95    0.48
   6  -2  -8    0.21    0.47
   6  -2  -8    0.37    0.42
  -6   2   8    1.07    0.46
  -6   2   8    1.42    0.58
   6   2  -8    0.50    0.29
   6   2  -8    0.07    0.36
   5  -2  -8    2.20    0.59
  -5  -2   8    2.71    0.64
   5  -2  -8    2.02    0.68
   5   2  -8    3.47    0.77
   5   2  -8    2.84    0.66
  -5   2   8    1.87    0.56
  -5   2   8    3.17    0.73
  -4  -2   8    0.96    0.42
   4  -2  -8    0.37    0.32
   4  -2  -8    0.31    0.36
   4  -2  -8   -0.29    0.28
  -4   2   8   -0.09    0.28
   4   2  -8    0.15    0.29
   4   2  -8   -0.21    0.26
  -4   2   8    0.57    0.40
   3  -2  -8   51.84    2.16
   3  -2  -8   53.57    2.26
  -3  -2   8   52.66    2.27
   3   2  -8   54.55    2.37
  -3   2   8   52.77    2.40
  -3   2   8   51.54    2.28
   3   2  -8   48.91    2.24
  -2  -2   8    0.80    0.37
   2  -2  -8    0.99    0.40
   2  -2  -8    1.22    0.43
  -2   2   8    1.11    0.46
   2   2  -8    0.76    0.46
   2   2  -8    0.62    0.24
   2   2  -8    0.94    0.41
   1  -2  -8  107.88    3.42
   1  -2  -8  102.78    3.67
   1  -2  -8  110.34    3.19
  -1  -2   8  110.25    3.69
   1   2  -8  109.40    3.68
   1   2  -8  108.06    3.55
  -1   2   8  111.06    3.78
   0  -2  -8   15.52    1.18
   0  -2  -8   17.45    1.44
   0  -2   8   14.50    1.27
   0  -2  -8   17.42    1.10
   0   2  -8   15.24    1.32
   0   2   8   15.52    1.00
   0   2   8   17.05    1.38
  -1  -2  -8    0.25    0.34
  -1  -2  -8   -0.19    0.40
   1  -2   8    0.46    0.42
  -1  -2  -8    0.77    0.37
   1   2   8    0.96    0.49
   1   2   8   -0.58    0.29
  -1   2  -8   -0.27    0.34
   2  -2   8   18.24    1.55
  -2  -2  -8   18.42    1.56
  -2  -2  -8   15.66    1.19
  -2   2  -8   22.32    1.70
   2   2   8   17.95    1.56
   3  -2   8   23.93    1.87
   3  -2   8   21.70    1.06
  -3  -2  -8   25.95    1.49
  -3  -2  -8   23.85    1.84
   3   2   8   25.85    1.89
  -3   2  -8   22.35    1.79
  -4  -2  -8    4.06    0.71
   4  -2   8    2.02    0.50
   4  -2   8    4.60    1.05
  -4  -2  -8    3.26    0.93
  -4   2  -8    1.01    0.62
   4   2   8    1.60    0.70
  -5  -2  -8    8.69    1.39
   5  -2   8   14.51    2.57
  -5  -2  -8   11.37    1.02
   5   2   8    9.24    1.49
  -6  -2  -8    2.78    0.87
  -6  -2  -8    4.73    0.82
  -6  -2  -8    5.72    0.85
  -6   2  -8    5.07    0.94
   6   2   8    3.49    1.10
  -6   2  -8    4.98    1.24
  -7  -2  -8    1.23    0.49
  -7  -2  -8    0.33    0.50
  -7   2  -8    0.85    0.55
  -7   2  -8   -0.28    0.61
  -8  -2  -8    0.89    0.80
  -8  -2  -8    1.19    0.53
  -8   2  -8    0.05    0.59
  -8   2  -8   -0.27    0.66
  12  -3  -8    2.13    0.80
  12  -3  -8   -0.19    0.74
  12   3  -8   -0.16    0.66
  12   3  -8    0.13    0.64
  12   3  -8    0.92    0.64
 -12   3   8   -0.45    0.41
  11  -3  -8    0.30    0.78
  11  -3  -8    0.46    0.67
  11   3  -8    1.19    0.62
  11   3  -8    1.24    0.70
  11   3  -8    0.02    0.63
  11   3  -8    1.03    0.45
 -11   3   8    1.33    0.63
  10  -3  -8   -0.37    0.48
  10  -3  -8    0.67    0.49
  10  -3  -8    0.07    0.51
  10   3  -8   -0.43    0.35
  10   3  -8   -1.07    0.46
  10   3  -8   -0.19    0.53
 -10   3   8    0.43    0.45
   9  -3  -8   -0.30    0.45
   9  -3  -8    1.24    0.65
   9  -3  -8    1.27    0.63
   9   3  -8    1.16    0.61
  -9   3   8    1.21    0.58
   9   3  -8    1.25    0.75
   9   3  -8    0.81    0.62
   8  -3  -8    1.34    0.66
   8  -3  -8    1.54    0.62
   8  -3  -8    0.48    0.41
   8  -3  -8    0.06    0.38
   8   3  -8    1.36    0.54
   8   3  -8    0.39    0.48
   8   3  -8    0.17    0.46
  -8   3   8    1.49    0.65
   8   3  -8    0.82    0.47
   7  -3  -8    5.65    1.04
   7  -3  -8    5.68    1.03
   7  -3  -8    4.78    1.07
   7   3  -8    6.33    1.02
   7   3  -8    7.25    1.08
   7   3  -8    5.97    0.94
  -7   3   8    4.43    1.02
  -7   3   8    7.37    1.21
   7   3  -8    6.95    1.11
  -6  -3   8   -0.31    0.26
   6  -3  -8    0.43    0.34
   6  -3  -8    0.41    0.32
   6  -3  -8   -0.45    0.35
   6   3  -8   -0.38    0.28
  -6   3   8   -0.07    0.36
  -6   3   8    0.47    0.44
   6   3  -8    0.48    0.43
   5  -3  -8   33.68    1.89
  -5  -3   8   38.01    1.87
   5  -3  -8   38.76    2.14
   5  -3  -8   36.96    2.05
  -5   3   8   35.46    1.97
   5   3  -8   37.86    1.95
  -5   3   8   37.74    2.05
   5   3  -8   36.42    1.98
   4  -3  -8    0.66    0.59
   4  -3  -8   -0.15    0.27
  -4  -3   8    0.12    0.27
   4  -3  -8   -0.24    0.20
   4   3  -8    0.44    0.37
  -4   3   8   -0.25    0.28
   4   3  -8    0.26    0.37
  -4   3   8    0.44    0.41
  -3  -3   8    1.14    0.47
   3  -3  -8    1.86    0.55
   3  -3  -8    1.28    0.53
   3  -3  -8    1.41    0.50
   3   3  -8    0.75    0.36
   3   3  -8    1.17    0.52
  -3   3   8    1.96    0.64
  -3   3   8    0.56    0.40
  -2  -3   8    7.20    1.02
   2  -3  -8    5.23    0.99
   2  -3  -8    6.29    0.90
  -2   3   8    5.32    0.80
   2   3  -8    6.59    0.95
  -2   3   8    6.78    1.06
   2   3  -8    4.72    0.83
   1  -3  -8   77.30    3.63
  -1  -3   8   80.09    3.00
   1  -3  -8   76.19    2.68
   1  -3  -8   76.18    2.77
   1   3  -8   80.70    3.02
  -1   3   8   76.66    3.07
   0  -3  -8    1.36    0.47
   0  -3   8    1.08    0.52
   0  -3  -8    0.47    0.36
   0   3  -8    0.01    0.37
   0   3   8    0.37    0.45
  -1  -3  -8   -0.38    0.25
   1  -3   8   -0.34    0.33
  -1  -3  -8   -0.04    0.34
  -1  -3  -8    0.84    0.56
  -1   3  -8   -0.41    0.29
   1   3   8   -0.32    0.33
  -2  -3  -8   60.67    3.35
  -2  -3  -8   57.48    2.40
  -2  -3  -8   51.82    2.15
   2  -3   8   54.27    2.69
   2   3   8   50.88    2.68
  -2   3  -8   55.53    2.70
  -3  -3  -8    0.06    0.35
   3  -3   8   -0.02    0.44
  -3  -3  -8    0.56    0.54
   3   3   8    0.61    0.51
  -4  -3  -8    4.71    0.80
  -4  -3  -8    5.39    1.18
   4  -3   8    4.24    0.62
   4  -3   8    4.62    0.98
  -4   3  -8    4.09    0.99
   4   3   8    2.33    0.89
  -5  -3  -8    0.37    0.58
  -5  -3  -8    0.22    0.37
   5   3   8    0.86    0.60
  -5   3  -8    0.11    0.45
  -6  -3  -8    6.13    1.22
  -6  -3  -8    6.75    0.90
  -6  -3  -8    6.98    0.90
   6   3   8    7.18    1.37
  -6   3  -8    9.25    1.57
  -6   3  -8    7.56    1.26
  -7  -3  -8    0.10    0.40
  -7  -3  -8    1.17    0.82
  -7  -3  -8   -0.26    0.42
  -7   3  -8    0.51    0.55
  -7   3  -8    0.41    0.48
  -8  -3  -8    1.17    0.78
  -8   3  -8    1.21    0.59
  -8   3  -8    0.16    0.65
  12  -4  -8    2.49    0.94
  12   4  -8    2.34    0.81
  12   4  -8    1.16    0.80
 -12   4   8    2.45    0.82
  11  -4  -8   -0.29    0.53
 -11   4   8    0.14    0.48
  11   4  -8   -1.10    0.43
  11   4  -8    0.70    0.60
  11   4  -8   -0.70    0.43
  11   4  -8    0.82    0.58
  10  -4  -8   15.57    2.21
  10  -4  -8   16.67    1.70
  10  -4  -8   19.66    1.96
  10   4  -8   16.95    1.59
  10   4  -8   16.20    3.06
 -10   4   8   19.73    1.70
  10   4  -8   20.80    1.51
  10   4  -8   19.22    1.78
   9  -4  -8   14.02    1.88
   9  -4  -8   15.29    1.56
   9  -4  -8   13.40    1.72
   9   4  -8   11.12    1.49
   9   4  -8   12.04    1.33
   9   4  -8   10.07    1.47
  -9   4   8   15.99    1.50
   9   4  -8   13.69    1.41
   8  -4  -8    0.94    0.52
   8  -4  -8   -0.38    0.33
   8  -4  -8   -0.38    0.34
   8  -4  -8   -0.07    0.31
   8   4  -8    0.10    0.39
   8   4  -8   -0.17    0.30
   8   4  -8   -0.47    0.37
   8   4  -8    0.37    0.33
  -8   4   8    0.23    0.38
   7  -4  -8   11.03    1.23
   7  -4  -8   13.40    1.42
   7  -4  -8   13.39    1.36
   7  -4  -8   14.49    1.31
  -7   4   8   11.89    1.34
   7   4  -8   12.36    1.16
  -7   4   8   12.71    1.27
   7   4  -8   11.23    1.19
   7   4  -8   13.62    1.24
   7   4  -8   12.74    1.16
   6  -4  -8   20.01    1.55
  -6  -4   8   19.83    1.35
   6  -4  -8   20.85    1.51
   6  -4  -8   21.33    1.67
   6   4  -8   21.60    1.53
  -6   4   8   19.54    1.55
  -6   4   8   19.80    1.51
   6   4  -8   20.70    1.47
   5  -4  -8    0.23    0.29
   5  -4  -8   -0.09    0.32
   5  -4  -8    0.73    0.47
  -5  -4   8    0.29    0.34
  -5   4   8   -0.02    0.31
   5   4  -8   -0.14    0.27
  -5   4   8    0.23    0.37
   5   4  -8    0.72    0.39
   4  -4  -8    0.18    0.39
   4  -4  -8    0.11    0.29
   4  -4  -8    0.59    0.44
  -4  -4   8    0.60    0.36
   4   4  -8    0.16    0.34
  -4   4   8    0.55    0.37
   4   4  -8    0.11    0.32
  -4   4   8    0.74    0.44
   3  -4  -8    1.07    0.66
   3  -4  -8    2.22    0.57
   3  -4  -8    1.89    0.57
  -3  -4   8    1.35    0.50
  -3   4   8    2.56    0.64
   3   4  -8    1.97    0.57
  -3   4   8    1.29    0.47
   3   4  -8    1.77    0.55
   2  -4  -8    0.42    0.31
   2  -4  -8    0.46    0.41
   2  -4  -8    0.25    0.39
  -2  -4   8    0.69    0.39
   2   4  -8    0.55    0.41
  -2   4   8    0.08    0.32
  -2   4   8    0.26    0.33
   1  -4  -8   24.85    1.43
   1  -4  -8   23.40    1.63
  -1  -4   8   21.07    1.44
   1  -4  -8   20.63    1.38
  -1   4   8   22.56    1.61
   1   4  -8   20.11    1.46
   0  -4  -8    0.22    0.29
   0  -4  -8   -0.06    0.39
   0  -4   8    0.03    0.36
   0  -4  -8    0.24    0.37
   0   4  -8    0.29    0.39
   0   4   8    0.64    0.40
  -1  -4  -8    8.38    1.15
  -1  -4  -8    7.97    1.23
   1  -4   8    6.28    1.02
  -1  -4  -8    7.42    0.92
  -1   4  -8    4.94    0.95
   1   4   8    4.08    0.81
  -2  -4  -8   13.92    1.43
   2  -4   8   14.11    1.55
  -2  -4  -8   13.69    1.07
  -2   4  -8   14.26    1.40
   2   4   8   15.71    1.49
  -3  -4  -8    2.41    1.20
  -3  -4  -8    3.44    0.60
   3  -4   8    1.99    0.73
  -3   4  -8    2.77    0.76
   3   4   8    3.07    0.79
  -4  -4  -8   19.44    1.21
   4  -4   8   19.70    1.01
   4  -4   8   19.38    1.98
  -4  -4  -8   20.50    1.83
  -4   4  -8   21.61    1.85
   4   4   8   22.55    1.90
  -5  -4  -8    3.36    0.96
   5  -4   8    3.00    0.61
  -5  -4  -8    3.12    0.57
  -5   4  -8    2.89    0.78
   5   4   8    2.84    1.00
  -6  -4  -8    0.72    0.41
  -6  -4  -8    0.72    0.67
  -6  -4  -8    1.26    0.64
  -6   4  -8    0.96    0.63
  -6   4  -8    0.94    0.55
  -7  -4  -8    0.20    0.81
   7   4   8    2.78    1.24
  -7   4  -8    0.45    0.73
  -7   4  -8    0.25    0.45
  -8  -4  -8    0.46    0.86
  -8   4  -8    1.25    0.77
  -8   4  -8    0.00    0.57
  12  -5  -8    0.95    0.75
  12   5  -8    0.59    0.76
  12   5  -8   -0.14    0.56
  12   5  -8    1.78    0.73
 -12   5   8    0.20    0.55
  12   5  -8    3.22    0.87
  11  -5  -8   -0.05    0.52
  11   5  -8   -0.80    0.50
 -11   5   8    0.87    0.57
  11   5  -8    0.56    0.47
  11   5  -8   -0.31    0.40
  11   5  -8    1.67    0.66
  10  -5  -8    1.97    0.84
  10  -5  -8    2.13    0.74
  10   5  -8    1.82    0.76
 -10   5   8    1.13    0.48
  10   5  -8    1.31    0.64
  10   5  -8    1.07    0.54
  10   5  -8    1.69    0.73
   9  -5  -8    8.08    1.25
   9  -5  -8   11.15    1.65
   9  -5  -8    9.62    1.53
   9   5  -8    9.83    1.26
   9   5  -8    8.69    1.21
  -9   5   8    7.61    1.18
   9   5  -8   10.39    1.36
   9   5  -8    9.22    1.40
   8  -5  -8    7.43    1.36
   8  -5  -8    7.22    1.31
   8  -5  -8    6.81    1.21
   8  -5  -8    5.46    0.96
   8   5  -8    6.63    1.07
   8   5  -8    7.49    1.14
   8   5  -8    6.15    1.00
  -8   5   8    5.78    1.14
   8   5  -8    6.26    0.96
   7  -5  -8   10.71    1.18
   7  -5  -8    8.67    1.37
   7  -5  -8    9.38    1.33
   7   5  -8    8.54    1.11
  -7   5   8   10.94    1.21
   7   5  -8   10.09    1.26
   7   5  -8   10.25    1.15
  -7   5   8    8.40    1.24
   7   5  -8    9.39    1.02
   6  -5  -8    0.89    0.61
   6  -5  -8    0.41    0.49
   6  -5  -8    1.07    0.49
  -6  -5   8    0.76    0.42
   6  -5  -8    0.67    0.47
   6  -5  -8    0.99    0.58
  -6   5   8    0.50    0.42
   6   5  -8    1.14    0.52
   6   5  -8    0.60    0.45
  -6   5   8    0.32    0.35
   5  -5  -8   14.09    1.22
   5  -5  -8   15.83    1.45
  -5  -5   8   13.67    1.08
   5  -5  -8   14.72    2.16
  -5   5   8   12.08    1.23
   5   5  -8   13.59    1.20
   5   5  -8   14.44    1.23
  -5   5   8   15.62    1.31
   4  -5  -8    0.22    0.35
   4  -5  -8    0.21    0.42
  -4  -5   8   -0.11    0.29
  -4   5   8    0.06    0.30
   4   5  -8    0.12    0.29
  -4   5   8    0.14    0.35
   4   5  -8    0.21    0.35
  -3  -5   8   12.83    1.03
   3  -5  -8   13.49    1.26
   3  -5  -8   11.42    1.09
   3  -5  -8   14.54    1.26
  -3   5   8   13.13    1.18
   3   5  -8   14.10    1.19
   3   5  -8   13.21    0.78
  -3   5   8   12.36    1.19
   3   5  -8   11.35    1.11
  -2  -5   8   12.80    1.06
   2  -5  -8   12.69    1.09
   2  -5  -8   15.98    1.37
  -2   5   8   12.79    1.26
   2   5  -8   12.68    1.15
  -2   5   8   11.40    1.09
   1  -5  -8   -0.26    0.40
  -1  -5   8    0.24    0.31
   1  -5  -8   -0.06    0.28
   1  -5  -8    0.22    0.41
  -1   5   8    0.39    0.65
   1   5  -8    0.12    0.34
  -1   5   8    0.37    0.32
   0  -5  -8    1.89    0.68
   0  -5  -8    2.03    0.52
   0  -5   8    2.63    0.67
   0   5   8    2.36    0.70
   0   5  -8    2.24    0.67
  -1  -5  -8    1.31    0.48
  -1  -5  -8    1.03    0.53
  -1  -5  -8    0.82    0.51
   1  -5   8    1.10    0.48
   1   5   8    0.87    0.56
  -1   5  -8    1.05    0.51
  -2  -5  -8    1.35    0.43
  -2  -5  -8    1.37    0.64
   2  -5   8    2.25    0.70
  -2  -5  -8    1.40    0.66
   2   5   8    0.01    0.43
  -2   5  -8    2.58    0.78
  -3  -5  -8    9.05    0.86
   3  -5   8    8.90    1.43
  -3  -5  -8    8.22    1.48
   3   5   8   11.31    1.52
  -3   5  -8   11.33    1.29
  -4  -5  -8    3.19    1.05
  -4  -5  -8    2.97    0.55
  -4   5  -8    3.14    0.89
   4   5   8    2.20    0.73
  -5  -5  -8    1.33    0.71
   5  -5   8    0.97    0.46
  -5   5  -8    1.22    0.64
   5   5   8    0.07    0.72
  -5   5  -8    1.60    0.67
  -6  -5  -8    1.51    0.85
  -6   5  -8    4.05    0.90
   6   5   8    2.80    1.05
  -6   5  -8    1.76    0.88
  -7  -5  -8    1.02    0.84
  -7   5  -8    0.06    0.67
  -7   5  -8   -1.06    0.48
   7   5   8   -0.56    0.82
  12  -6  -8   -0.72    0.53
 -12   6   8   -0.61    0.46
  12   6  -8   -0.43    0.50
  12   6  -8    0.01    0.70
  12   6  -8    0.66    0.69
  12   6  -8    0.59    0.68
  11  -6  -8    1.08    0.73
  11   6  -8    1.89    0.72
  11   6  -8    1.62    0.56
  11   6  -8    2.42    0.90
  11   6  -8    0.70    0.60
 -11   6   8    2.62    0.91
  10  -6  -8    4.82    1.20
  10  -6  -8    5.88    1.29
  10   6  -8    5.23    0.91
  10   6  -8    3.76    0.85
 -10   6   8    6.28    1.31
  10   6  -8    4.30    0.98
  10   6  -8    4.03    0.91
   9  -6  -8    7.50    1.38
   9  -6  -8    6.31    1.28
   9   6  -8    7.26    1.11
  -9   6   8    5.89    1.05
   9   6  -8    6.34    1.08
   9   6  -8    6.73    1.06
   9   6  -8    5.42    0.95
   8  -6  -8    0.54    0.55
   8  -6  -8    0.79    0.59
   8  -6  -8    1.13    0.56
   8   6  -8    1.39    0.52
   8   6  -8    1.27    0.58
  -8   6   8    0.60    0.48
   8   6  -8    1.07    0.51
   7  -6  -8   10.87    1.57
   7  -6  -8   12.49    1.64
   7  -6  -8   11.35    1.27
   7  -6  -8   11.72    1.55
   7  -6  -8    9.76    1.57
   7   6  -8   13.19    1.28
   7   6  -8   12.00    1.18
  -7   6   8   12.34    1.59
   7   6  -8   10.91    1.12
   7   6  -8   12.15    1.13
  -7   6   8   11.42    1.31
   6  -6  -8    0.31    0.48
   6  -6  -8    0.58    0.36
   6  -6  -8   -0.28    0.31
   6  -6  -8    0.13    0.48
   6  -6  -8    0.11    0.45
   6   6  -8   -0.01    0.32
   6   6  -8   -0.21    0.35
  -6   6   8    0.40    0.35
  -6   6   8    0.60    0.40
   5  -6  -8    6.15    0.94
  -5  -6   8    5.25    0.80
   5  -6  -8    5.17    1.04
   5  -6  -8    7.71    1.15
   5  -6  -8    4.63    0.94
   5   6  -8    6.04    0.93
  -5   6   8    6.57    1.14
  -5   6   8    7.15    1.05
   5   6  -8    9.14    1.24
   4  -6  -8   -0.46    0.24
  -4  -6   8    0.22    0.28
   4  -6  -8   -0.09    0.33
   4  -6  -8   -0.03    0.37
   4   6  -8    0.63    0.36
  -4   6   8   -0.51    0.30
   4   6  -8    0.05    0.24
   4   6  -8   -0.38    0.25
  -4   6   8   -0.34    0.21
  -3  -6   8   11.76    0.98
   3  -6  -8   12.36    1.24
   3  -6  -8   11.48    1.21
   3  -6  -8   12.41    1.10
   3   6  -8   11.63    0.76
  -3   6   8   10.61    1.13
   3   6  -8    9.35    1.01
  -3   6   8   13.22    1.17
   2  -6  -8   14.89    1.35
  -2  -6   8   15.07    1.12
   2  -6  -8   13.79    1.32
   2  -6  -8   11.95    1.09
  -2   6   8   13.67    1.29
  -2   6   8   16.65    1.28
   2   6  -8   14.46    1.20
   1  -6  -8    3.25    0.70
  -1  -6   8    1.65    0.51
   1  -6  -8    1.29    0.58
   1  -6  -8    3.15    0.82
  -1   6   8    3.68    0.79
   1   6  -8    1.87    0.58
  -1   6   8    1.93    0.54
   0  -6  -8   13.05    1.06
   0  -6  -8   16.19    1.41
   0  -6  -8   14.34    1.31
   0  -6   8   12.08    1.11
   0   6  -8   11.57    1.16
   0   6   8   14.95    1.38
   1  -6   8    0.64    0.45
  -1  -6  -8    1.05    0.57
  -1  -6  -8    0.18    0.38
  -1  -6  -8    0.44    0.32
   1   6   8   -0.09    0.53
  -1   6  -8    0.13    0.39
  -2  -6  -8    4.57    0.93
  -2  -6  -8    3.26    0.86
  -2  -6  -8    3.29    0.61
   2  -6   8    3.72    0.86
   2   6   8    4.37    0.96
  -2   6  -8    2.86    0.80
  -3  -6  -8   18.03    1.67
  -3  -6  -8   17.99    1.16
  -3  -6  -8   21.17    1.72
  -3   6  -8   18.97    1.66
   3   6   8   19.28    1.71
  -4  -6  -8    7.46    1.56
  -4  -6  -8    4.99    0.95
  -4   6  -8    3.87    0.94
   4   6   8    5.46    1.19
  -5  -6  -8    2.57    0.86
   5  -6   8    0.13    0.62
  -5  -6  -8    0.99    0.38
  -5   6  -8    1.60    0.68
   5   6   8    4.27    1.09
  -5   6  -8    2.25    0.81
  -6  -6  -8    0.54    0.82
  -6   6  -8    2.04    0.67
   6   6   8    1.92    1.00
  -6   6  -8   -0.12    0.67
  -7  -6  -8    2.18    0.96
  -7   6  -8    1.13    0.67
  -7   6  -8    1.25    0.87
   7   6   8    0.14    0.83
  12  -7  -8    0.77    0.80
  12   7  -8    0.88    0.70
  12   7  -8    2.13    0.82
  12   7  -8    2.39    0.68
 -12   7   8    2.21    0.77
  12   7  -8    1.76    0.89
  11  -7  -8    0.31    0.79
  11   7  -8   -0.11    0.55
  11   7  -8    1.57    0.70
  11   7  -8    1.57    0.72
  11   7  -8    1.65    0.63
 -11   7   8    0.68    0.65
  10  -7  -8    1.59    0.77
  10   7  -8    1.60    0.64
  10   7  -8    0.98    0.50
  10   7  -8    0.20    0.58
  10   7  -8   -0.26    0.51
 -10   7   8    0.87    0.56
   9  -7  -8   18.68    1.86
   9  -7  -8   15.34    1.65
   9   7  -8   18.45    1.61
   9   7  -8   18.00    1.49
   9   7  -8   16.52    2.65
   9   7  -8   18.43    1.72
  -9   7   8   19.18    1.70
   8  -7  -8    1.58    0.94
   8  -7  -8    1.43    0.75
   8  -7  -8    0.73    0.60
   8  -7  -8    2.21    0.84
   8   7  -8    0.93    0.46
   8   7  -8    0.53    0.52
   8   7  -8    2.38    0.67
   8   7  -8    2.17    0.71
  -8   7   8    2.30    0.66
   7  -7  -8    4.57    1.10
   7  -7  -8    4.65    1.07
   7  -7  -8    4.47    0.90
   7  -7  -8    5.65    1.53
  -7   7   8    5.40    0.98
   7   7  -8    6.34    0.96
   7   7  -8    5.08    0.85
   7   7  -8    5.34    0.91
  -7   7   8    5.97    1.11
   7   7  -8    7.31    1.09
   6  -7  -8   12.61    1.84
   6  -7  -8   10.40    1.45
   6  -7  -8    9.69    1.35
   6  -7  -8   10.45    1.40
   6  -7  -8    7.99    1.24
   6   7  -8   11.77    1.15
  -6   7   8    9.24    1.37
  -6   7   8    7.95    1.20
   6   7  -8    7.75    1.19
   6   7  -8    8.39    0.94
   5  -7  -8    0.96    0.47
  -5  -7   8    0.20    0.29
   5  -7  -8    0.64    0.43
   5  -7  -8    0.67    0.58
   5   7  -8   -0.15    0.30
  -5   7   8    0.49    0.42
   5   7  -8   -0.28    0.30
  -5   7   8    0.69    0.42
   4  -7  -8   21.31    1.51
   4  -7  -8   20.94    1.63
  -4  -7   8   19.01    1.21
   4  -7  -8   22.12    1.76
   4   7  -8   19.46    1.48
   4   7  -8   20.53    1.40
  -4   7   8   18.82    1.50
   4   7  -8   20.18    1.20
  -4   7   8   21.04    1.52
  -3  -7   8    5.14    0.78
   3  -7  -8    3.78    0.84
   3  -7  -8    3.50    0.84
   3  -7  -8    7.73    1.09
  -3   7   8    3.67    0.93
   3   7  -8    6.52    0.97
   3   7  -8    6.35    0.58
  -3   7   8    5.04    0.91
   2  -7  -8    1.17    0.54
  -2  -7   8    0.82    0.40
   2  -7  -8    1.37    0.57
   2  -7  -8    1.58    0.58
  -2   7   8    1.28    0.54
   2   7  -8    0.94    0.46
  -2   7   8    1.34    0.54
   1  -7  -8    1.85    0.52
   1  -7  -8    0.99    0.52
  -1  -7   8    1.04    0.43
   1  -7  -8    0.46    0.43
  -1   7   8   -0.17    0.38
   1   7  -8    0.40    0.41
  -1   7   8    0.04    0.32
   0  -7  -8   19.27    1.28
   0  -7  -8   16.45    1.51
   0  -7  -8   16.32    1.44
   0   7   8   19.91    1.57
   0   7   8   16.49    1.24
   0   7  -8   16.08    1.34
   1  -7   8    4.81    0.84
  -1  -7  -8    6.59    0.86
  -1  -7  -8    7.25    1.17
  -1  -7  -8    3.63    0.91
  -1   7  -8    4.83    0.99
   1   7   8    3.63    0.83
  -2  -7  -8   -0.09    0.29
  -2  -7  -8    0.27    0.47
  -2  -7  -8    0.09    0.47
  -2   7  -8   -0.47    0.33
   2   7   8    0.34    0.50
  -3  -7  -8    0.17    0.48
  -3  -7  -8    0.13    0.50
  -3  -7  -8   -0.20    0.26
   3   7   8   -0.31    0.43
  -3   7  -8    0.32    0.50
  -4  -7  -8    1.13    0.38
   4   7   8    1.04    0.58
  -4   7  -8    1.93    0.71
  -5  -7  -8    5.35    1.86
   5   7   8    5.49    1.23
  -5   7  -8    6.25    1.09
  -5   7  -8    4.11    1.03
  -6  -7  -8   14.60    1.94
   6  -7   8   13.03    1.04
  -6   7  -8   10.96    1.64
  -6   7  -8   14.26    1.59
   6   7   8   12.06    1.87
  -7  -7  -8    1.35    0.96
  -7   7  -8    0.87    0.66
   7   7   8   -0.86    1.31
  -7   7  -8   -0.72    0.55
  11  -8  -8    0.45    0.74
  11   8  -8    0.08    0.52
 -11   8   8   -0.40    0.53
  11   8  -8   -1.60    0.66
  11   8  -8   -0.45    0.47
  11   8  -8    0.53    0.60
  10  -8  -8    3.66    1.07
  10  -8  -8    1.84    0.95
 -10   8   8    4.12    1.04
  10   8  -8    4.54    0.98
  10   8  -8    4.30    0.86
  10   8  -8    4.54    0.88
  10   8  -8    4.95    1.01
   9  -8  -8    8.46    1.71
   9  -8  -8    5.72    1.19
   9   8  -8    6.39    1.10
   9   8  -8    7.02    1.10
  -9   8   8    7.60    1.24
   9   8  -8    5.77    0.98
   8  -8  -8   20.32    2.08
   8  -8  -8   26.54    2.35
   8  -8  -8   25.14    2.06
   8   8  -8   20.00    1.47
   8   8  -8   18.32    1.53
  -8   8   8   24.47    1.86
   8   8  -8   20.91    1.66
   8   8  -8   20.70    1.54
   7  -8  -8   35.28    2.19
   7  -8  -8   34.70    2.32
   7  -8  -8   35.45    2.55
   7  -8  -8   32.25    2.22
   7   8  -8   32.15    1.85
   7   8  -8   31.03    1.75
   7   8  -8   27.25    1.77
   7   8  -8   28.73    1.67
  -7   8   8   33.18    2.19
   6  -8  -8    0.07    0.43
   6  -8  -8    0.09    0.37
   6  -8  -8   -0.16    0.29
   6  -8  -8   -0.28    0.35
   6  -8  -8    0.72    0.60
   6   8  -8    0.21    0.37
  -6   8   8    0.29    0.36
   6   8  -8    0.57    0.38
   6   8  -8    0.21    0.34
  -6   8   8    0.59    0.51
   5  -8  -8    5.07    1.40
  -5  -8   8    2.95    0.69
   5  -8  -8    3.59    0.85
   5  -8  -8    1.99    0.79
   5  -8  -8    4.44    1.02
  -5   8   8    2.59    0.67
   5   8  -8    2.71    0.66
   5   8  -8    3.57    0.75
  -5   8   8    3.97    0.88
   4  -8  -8    3.20    0.73
   4  -8  -8    4.77    1.12
   4  -8  -8    2.91    0.78
  -4   8   8    4.57    0.89
   4   8  -8    3.38    0.72
  -4   8   8    3.68    0.78
   3  -8  -8   -0.53    0.35
  -3  -8   8    0.48    0.34
   3  -8  -8    0.42    0.47
   3  -8  -8    0.42    0.40
   3   8  -8    0.29    0.26
   3   8  -8    0.35    0.34
  -3   8   8    0.57    0.39
  -3   8   8   -0.48    0.27
   2  -8  -8    0.06    0.38
   2  -8  -8   -0.24    0.23
   2  -8  -8   -0.16    0.42
  -2  -8   8   -0.26    0.26
  -2   8   8    0.20    0.34
  -2   8   8    0.59    0.45
   2   8  -8    0.40    0.37
   1  -8  -8    6.36    1.11
   1  -8  -8    6.08    1.14
   1  -8  -8    4.52    0.80
  -1  -8   8    5.54    1.15
   1   8  -8    4.29    0.85
  -1   8   8    5.00    0.90
  -1   8   8    4.57    0.97
   0  -8  -8    9.69    1.27
   0  -8   8    9.80    1.01
   0  -8  -8   12.45    1.39
   0  -8  -8   10.37    0.98
   0   8   8    9.20    1.28
   0   8  -8   10.66    1.12
   0   8   8   11.75    1.05
  -1  -8  -8    6.85    1.14
   1  -8   8    6.30    0.98
  -1  -8  -8    7.20    0.94
  -1  -8  -8    5.79    1.14
   1   8   8    6.50    1.11
  -1   8  -8    6.44    1.04
  -2  -8  -8    3.31    0.61
  -2  -8  -8    2.89    0.82
  -2  -8  -8    3.07    0.90
   2   8   8    3.40    0.88
  -2   8  -8    4.32    0.92
  -3  -8  -8    3.94    0.93
  -3  -8  -8    6.10    1.07
  -3  -8  -8    6.09    1.24
  -3   8  -8    3.65    0.87
   3   8   8    3.95    0.93
  -4  -8  -8    0.04    0.56
  -4   8  -8    0.53    0.52
   4   8   8    1.03    0.64
  -4   8  -8    0.66    0.50
  -5  -8  -8    0.48    0.58
  -5   8  -8   -0.88    0.41
   5   8   8   -0.41    0.57
  -5   8  -8    0.07    0.53
   6  -8   8    2.78    0.54
  -6  -8  -8    2.24    1.60
  -6   8  -8    1.10    0.69
  -6   8  -8    2.04    0.80
   6   8   8    2.93    0.90
   7  -8   8    2.09    0.75
  -7  -8  -8    2.83    1.14
  -7   8  -8    2.90    0.91
   7   8   8    0.23    1.20
  -7   8  -8    0.89    0.76
  11  -9  -8    3.76    1.55
  11   9  -8    1.13    0.65
  11   9  -8    2.46    0.89
 -11   9   8    1.76    1.13
  11   9  -8    2.31    0.80
  10  -9  -8    2.32    1.12
  10  -9  -8    1.16    0.81
  10   9  -8    4.64    0.99
  10   9  -8    2.45    0.69
 -10   9   8    2.59    0.82
  10   9  -8    2.56    0.72
  10   9  -8    2.16    0.76
   9  -9  -8    0.40    0.56
   9  -9  -8   -0.12    0.51
   9   9  -8   -0.55    0.41
   9   9  -8   -0.06    0.48
  -9   9   8   -0.32    0.38
   9   9  -8   -0.17    0.39
   9   9  -8   -0.10    0.39
   8  -9  -8    0.49    0.66
   8  -9  -8    0.49    0.65
   8   9  -8    0.45    0.46
  -8   9   8   -0.08    0.34
   8   9  -8    0.12    0.44
   7  -9  -8   20.85    1.79
   7  -9  -8   17.64    1.94
   7   9  -8   19.40    1.36
  -7   9   8   15.62    1.57
   7   9  -8   18.20    1.61
   7   9  -8   17.58    1.73
  -7   9   8   18.07    1.63
   7   9  -8   16.78    1.29
   6  -9  -8    8.95    2.19
   6  -9  -8    7.40    1.38
   6  -9  -8   10.39    1.56
   6  -9  -8    8.27    1.24
  -6   9   8    9.93    1.45
   6   9  -8    6.66    1.05
   6   9  -8    8.07    1.02
   6   9  -8   10.45    1.07
  -6   9   8    9.20    1.30
   5  -9  -8    0.08    0.51
   5  -9  -8    0.68    0.46
   5  -9  -8    0.39    0.39
   5  -9  -8    0.66    0.45
   5  -9  -8    1.22    0.65
  -5   9   8    0.97    0.56
  -5   9   8    0.86    0.53
   5   9  -8    0.46    0.46
   5   9  -8    1.12    0.47
   4  -9  -8    0.72    0.42
   4  -9  -8    1.91    0.62
   4  -9  -8    1.07    0.54
  -4  -9   8    0.61    0.32
   4  -9  -8    0.68    0.60
  -4   9   8    0.58    0.42
   4   9  -8    0.52    0.40
  -3  -9   8   -0.01    0.25
   3  -9  -8    0.50    0.43
   3  -9  -8   -0.16    0.36
   3  -9  -8   -0.43    0.36
   3   9  -8    0.50    0.32
  -3   9   8   -0.21    0.30
   3   9  -8   -0.40    0.25
  -3   9   8    0.58    0.46
   2  -9  -8   10.29    1.17
   2  -9  -8    9.37    1.44
   2  -9  -8    8.73    1.16
  -2   9   8    9.66    1.33
   2   9  -8    6.79    0.56
  -2   9   8   10.05    1.27
   2   9  -8    6.80    0.94
  -1  -9   8    1.14    0.43
   1  -9  -8    0.92    0.67
   1  -9  -8    1.21    0.47
   1  -9  -8    1.36    0.63
   1   9  -8    1.28    0.54
  -1   9   8    1.05    0.56
  -1   9   8    0.94    0.49
   0  -9  -8    2.61    0.61
   0  -9   8    2.87    0.68
   0  -9  -8    1.22    0.70
   0  -9  -8    1.95    0.67
   0   9   8    2.04    0.63
   0   9   8    1.89    0.70
  -1  -9  -8    1.42    0.49
  -1  -9  -8    2.32    0.72
   1  -9   8    2.54    0.65
  -1  -9  -8    1.24    0.68
   1   9   8    1.81    0.62
  -1   9  -8    3.80    0.82
  -2  -9  -8    7.39    1.18
  -2  -9  -8   10.55    1.57
  -2  -9  -8    9.68    0.87
   2   9   8   10.10    1.39
  -2   9  -8    9.06    1.28
  -3  -9  -8    0.79    0.66
  -3  -9  -8    0.16    0.50
  -3   9  -8    0.18    0.39
   3   9   8    2.50    0.69
  -4  -9  -8    0.49    0.60
  -4  -9  -8   -0.55    0.34
  -4   9  -8    1.09    0.64
   4   9   8    0.29    0.58
  -4   9  -8   -0.06    0.45
  -5  -9  -8    8.62    1.43
  -5   9  -8    7.72    1.27
  -5   9  -8    9.32    1.57
   5   9   8    9.89    1.61
   6  -9   8    2.29    0.50
  -6  -9  -8    2.42    0.90
  -6   9  -8    0.34    0.68
   6   9   8    2.01    0.94
  -6   9  -8    0.88    0.67
  11 -10  -8    2.88    1.14
  11 -10  -8    1.33    0.92
  11  10  -8    0.35    0.71
 -11  10   8    3.33    1.73
  11  10  -8    1.46    0.61
  11  10  -8    1.37    0.68
  10 -10  -8    3.14    1.11
  10 -10  -8    3.49    1.02
  10  10  -8    5.71    0.90
  10  10  -8    6.68    1.20
  10  10  -8    5.02    0.99
  10  10  -8    3.65    0.86
 -10  10   8    5.12    1.21
   9 -10  -8    4.39    1.21
   9 -10  -8    4.19    1.04
   9  10  -8    6.78    1.06
   9  10  -8    6.99    1.07
   9  10  -8    4.45    0.92
  -9  10   8    5.63    1.28
   9  10  -8    5.99    1.05
   8 -10  -8    3.93    1.18
   8 -10  -8    4.10    1.06
   8  10  -8    5.06    0.92
   8  10  -8    5.69    0.90
   8  10  -8    4.33    0.83
  -8  10   8    4.65    0.98
   8  10  -8    4.71    0.82
   7 -10  -8   -0.58    0.45
   7  10  -8   -0.59    0.33
   7  10  -8   -0.08    0.32
   7  10  -8    0.17    0.48
  -7  10   8    0.99    0.55
   6 -10  -8   -0.31    0.34
   6 -10  -8    0.56    0.62
   6  10  -8    0.33    0.43
   6  10  -8   -0.15    0.35
   6  10  -8   -0.70    0.37
  -6  10   8    0.68    0.52
  -6  10   8    0.51    0.62
   5 -10  -8   10.19    1.38
   5 -10  -8   11.60    1.61
   5 -10  -8    8.96    1.58
   5 -10  -8   12.33    1.60
  -5  10   8    9.53    1.37
  -5  10   8    9.74    1.45
   5  10  -8   10.01    1.12
   5  10  -8    8.37    0.93
   4 -10  -8    1.17    0.76
  -4 -10   8    1.43    0.38
   4 -10  -8    3.19    0.82
   4 -10  -8    2.55    0.74
   4 -10  -8    2.42    0.72
  -4  10   8    0.93    0.55
  -4  10   8    1.37    0.61
   4  10  -8    1.21    0.48
  -3 -10   8    4.63    0.75
   3 -10  -8    2.88    0.80
   3 -10  -8    4.02    1.04
   3 -10  -8    4.10    1.09
   3  10  -8    7.20    0.96
   3  10  -8    4.86    0.70
  -3  10   8    4.91    0.94
  -3  10   8    3.19    0.85
   2 -10  -8    0.20    0.56
  -2 -10   8    0.85    0.35
   2 -10  -8    0.48    0.46
   2 -10  -8    1.86    0.55
   2  10  -8    1.42    0.50
  -2  10   8    0.96    0.52
   2  10  -8    0.96    0.32
  -2  10   8    1.29    0.59
   1 -10  -8   30.31    1.72
  -1 -10   8   28.23    1.50
   1 -10  -8   28.31    2.18
   1 -10  -8   32.08    1.94
   1  10  -8   29.09    1.69
  -1  10   8   29.23    1.74
  -1  10   8   27.73    2.32
   0 -10  -8   -0.07    0.46
   0 -10   8   -0.23    0.30
   0 -10  -8    0.13    0.44
   0 -10  -8    0.01    0.30
   0  10   8   -0.06    0.30
   0  10   8   -0.07    0.39
   0  10  -8    0.33    0.39
  -1 -10  -8    3.10    0.63
  -1 -10  -8    4.03    1.08
  -1 -10  -8    4.53    0.96
   1  10   8    5.78    0.89
  -1  10  -8    4.30    0.92
  -2 -10  -8   -0.06    0.45
  -2 -10  -8    0.00    0.27
  -2 -10  -8    0.21    0.44
  -2  10  -8   -0.06    0.39
   2  10   8    0.15    0.47
  -3 -10  -8    0.95    0.60
  -3 -10  -8    0.54    0.48
  -3 -10  -8    0.27    0.54
  -3  10  -8    0.48    0.48
   3  10   8   -0.55    0.46
  -3  10  -8    0.06    0.39
  -4 -10  -8    2.23    1.67
  -4 -10  -8    2.44    0.82
  -4  10  -8    2.41    0.80
  -4  10  -8    1.80    0.71
  -5 -10  -8    7.79    1.27
  -5  10  -8    9.39    1.55
  -5  10  -8    7.07    1.28
   5  10   8   10.96    1.49
  -6 -10  -8    1.38    0.82
  -6  10  -8    2.22    0.89
  -6  10  -8    1.41    0.76
   6  10   8    4.27    1.07
  10 -11  -8    0.87    0.74
  10 -11  -8    0.49    0.85
  10  11  -8    0.63    0.57
  10  11  -8    0.53    0.55
  10  11  -8    0.50    0.60
  10  11  -8    1.06    0.64
 -10  11   8    0.17    0.59
   9 -11  -8    0.76    0.72
   9 -11  -8    0.43    0.65
   9  11  -8    1.32    0.52
  -9  11   8   -0.44    0.43
   9  11  -8    0.83    0.55
   9  11  -8    0.45    0.49
   8 -11  -8    6.71    1.34
   8 -11  -8    5.26    1.30
  -8  11   8    3.51    0.92
   8  11  -8    3.80    0.81
   8  11  -8    4.87    0.88
   8  11  -8    3.37    0.77
   8  11  -8    5.32    0.83
   7 -11  -8    4.07    1.01
   7 -11  -8    4.85    1.36
  -7  11   8    3.48    0.94
   7  11  -8    2.11    0.56
   7  11  -8    2.14    0.60
   7  11  -8    4.07    0.79
   7  11  -8    3.22    0.66
   6 -11  -8   10.48    1.84
   6 -11  -8    8.49    1.45
   6  11  -8    7.46    0.82
  -6  11   8    7.96    1.33
   6  11  -8    9.27    1.29
   6  11  -8    7.76    0.88
  -6  11   8   10.53    1.22
   6  11  -8   10.34    1.43
   5 -11  -8   10.38    1.87
   5 -11  -8    6.18    1.12
  -5  11   8    7.33    1.75
  -5  11   8    9.67    1.47
   5  11  -8    7.64    0.88
   4 -11  -8    0.27    0.46
   4 -11  -8    0.76    0.59
   4 -11  -8    0.40    0.41
   4  11  -8    0.54    0.35
  -4  11   8    0.19    0.35
  -4  11   8    1.59    0.57
   3 -11  -8   -0.24    0.38
   3 -11  -8    0.30    0.57
   3 -11  -8    0.05    0.37
  -3  11   8   -0.02    0.30
   3  11  -8    0.12    0.31
  -3  11   8   -0.75    0.40
   2 -11  -8   10.86    1.17
  -2 -11   8   10.84    0.82
   2 -11  -8   15.22    2.06
   2 -11  -8   12.82    1.30
  -2  11   8   12.27    1.60
  -2  11   8   13.16    1.26
   2  11  -8   11.60    0.84
   2  11  -8   12.16    1.06
   1 -11  -8   -0.16    0.42
  -1 -11   8    0.52    0.32
   1 -11  -8    0.56    0.43
   1 -11  -8    0.14    0.37
  -1  11   8    0.29    0.44
   1  11  -8    0.00    0.30
  -1  11   8   -0.67    0.24
   0 -11  -8   39.37    1.95
   0 -11  -8   41.41    2.23
   0 -11  -8   39.24    2.67
   0  11  -8   39.05    2.38
   0  11   8   45.21    2.16
   0  11   8   38.77    2.30
  -1 -11  -8    3.15    0.93
  -1 -11  -8    4.68    0.75
  -1 -11  -8    3.35    0.87
   1  11   8    4.02    0.92
   1  11   8    3.39    0.68
  -1  11  -8    4.53    0.87
  -2 -11  -8    8.99    2.16
  -2 -11  -8    6.40    0.82
  -2 -11  -8    7.11    1.14
  -2  11  -8    6.66    1.13
   2  11   8    5.95    1.18
  -3 -11  -8    0.18    0.33
  -3 -11  -8   -0.24    0.46
  -3 -11  -8    0.17    0.95
  -3  11  -8   -0.14    0.40
  -3  11  -8   -0.70    0.35
   3  11   8    0.89    0.57
  -4 -11  -8   -0.69    0.46
  -4  11  -8    0.12    0.52
   4  11   8    0.62    0.70
  -4  11  -8    1.18    0.61
  -5 -11  -8   -0.17    0.58
  -5  11  -8   -0.22    0.47
   5  11   8   -0.23    0.61
  -5  11  -8    0.66    0.59
  10 -12  -8    1.20    0.87
  10 -12  -8    2.76    1.22
  10  12  -8    4.05    0.89
 -10  12   8    3.72    1.02
  10  12  -8    3.07    0.80
  10  12  -8    2.17    0.73
   9 -12  -8    2.30    0.92
   9 -12  -8    0.83    0.79
   9  12  -8    2.76    0.72
  -9  12   8    2.43    0.89
   9  12  -8    2.01    0.70
   9  12  -8    2.09    0.68
   9  12  -8    2.04    0.72
   8 -12  -8    0.33    0.53
   8 -12  -8    1.05    0.87
   8  12  -8    1.24    0.48
   8  12  -8    1.90    0.68
   8  12  -8    0.12    0.44
   8  12  -8    1.27    0.47
  -8  12   8    0.80    0.60
   7 -12  -8    2.51    0.99
   7  12  -8    4.38    0.82
   7  12  -8    3.89    0.73
   7  12  -8    3.81    0.72
   7  12  -8    3.04    0.66
  -7  12   8    3.18    0.90
   6 -12  -8    5.53    1.31
   6 -12  -8    5.04    1.10
   6  12  -8    7.95    0.84
   6  12  -8    7.56    0.90
   6  12  -8    9.92    1.34
   6  12  -8    6.20    0.88
  -6  12   8    9.90    1.53
  -6  12   8    7.95    1.28
   5 -12  -8    3.46    1.22
   5 -12  -8    3.87    0.99
   5  12  -8    4.02    0.95
  -5  12   8    3.12    1.00
  -5  12   8    4.51    0.97
   4 -12  -8    1.08    1.01
   4 -12  -8    1.43    0.60
   4  12  -8    1.00    0.44
  -4  12   8    1.16    0.59
  -4  12   8    0.64    0.55
   3 -12  -8    7.55    1.16
   3 -12  -8    6.90    1.16
   3 -12  -8    7.57    1.54
  -3  12   8    7.37    1.15
   3  12  -8    7.88    0.85
   2 -12  -8    3.84    0.83
   2 -12  -8    5.16    1.29
   2 -12  -8    4.29    0.94
   2  12  -8    4.30    0.78
  -2  12   8    2.99    0.77
  -2  12   8    3.37    0.90
   2  12  -8    3.16    0.56
  -1 -12   8    0.37    0.32
   1 -12  -8    0.53    0.61
   1 -12  -8    0.25    0.39
   1 -12  -8    0.61    0.48
  -1  12   8    0.27    0.47
   1  12  -8    0.06    0.32
  -1  12   8    0.06    0.37
   0 -12  -8    4.51    1.47
   0 -12  -8    6.86    1.11
   0 -12  -8    6.27    0.95
   0  12   8    6.09    1.10
   0  12   8    4.39    0.84
   0  12  -8    5.16    0.91
  -1 -12  -8    0.23    0.65
  -1 -12  -8    0.85    0.47
  -1 -12  -8    1.42    0.55
   1  12   8    0.09    0.49
   1  12   8    1.64    0.57
  -1  12  -8    0.84    0.47
  -2 -12  -8    0.53    0.48
  -2 -12  -8    1.13    0.44
  -2 -12  -8   -0.54    0.39
  -2  12  -8    0.62    0.53
   2  12   8    0.77    0.51
  -2  12  -8    0.64    0.47
  -3 -12  -8    0.87    0.83
  -3 -12  -8    1.89    0.62
  -3  12  -8    2.82    0.90
   3  12   8    0.26    0.60
  -3  12  -8    1.61    0.73
  -4 -12  -8    5.72    1.08
  -4 -12  -8    3.24    1.23
  -4  12  -8    4.14    1.08
   4  12   8    4.79    1.02
  -4  12  -8    3.30    0.88
  -5 -12  -8    0.96    0.64
  -5  12  -8    0.88    0.67
  -5  12  -8   -0.71    0.59
   5  12   8    1.97    0.90
   9 -13  -8    2.65    1.12
   9 -13  -8    0.03    0.63
   9  13  -8    1.89    0.58
   9  13  -8    1.67    0.70
   9  13  -8    1.77    0.55
  -9  13   8    2.55    0.88
   8 -13  -8    1.68    0.90
   8 -13  -8    2.30    1.07
   8  13  -8    1.11    0.48
   8  13  -8    0.82    0.48
   8  13  -8    1.99    0.52
   8  13  -8    0.44    0.56
  -8  13   8    0.54    0.59
   7 -13  -8    0.66    0.66
   7 -13  -8   -0.18    0.52
   7  13  -8    0.12    0.35
  -7  13   8   -0.18    0.38
   7  13  -8   -0.37    0.38
   7  13  -8    0.22    0.67
   7  13  -8    0.57    0.34
   6 -13  -8    2.66    0.96
   6 -13  -8    4.79    1.11
   6  13  -8    3.39    0.62
   6  13  -8    4.11    0.64
   6  13  -8    3.70    0.62
  -6  13   8    3.34    0.85
  -6  13   8    2.11    0.80
   5 -13  -8    1.33    0.84
   5 -13  -8    1.58    0.71
  -5  13   8    2.52    0.78
   5  13  -8    1.98    0.50
   5  13  -8    2.68    0.58
  -5  13   8    2.63    0.91
   4 -13  -8    1.91    0.71
   4 -13  -8    1.11    0.76
  -4  13   8    0.89    0.63
  -4  13   8    3.10    0.77
   4  13  -8    1.38    0.78
   3 -13  -8   17.94    1.55
  -3  13   8   15.82    1.47
   3  13  -8   15.13    1.33
  -3  13   8   15.28    1.49
   2 -13  -8    4.32    0.84
   2 -13  -8    4.59    1.30
   2 -13  -8    4.63    0.92
  -2  13   8    5.10    1.09
   2  13  -8    3.89    0.69
  -2  13   8    3.57    0.81
   1 -13  -8    0.50    0.50
   1 -13  -8    0.62    0.85
  -1  13   8    0.33    0.43
   1  13  -8   -0.18    0.32
  -1  13   8   -0.20    0.44
   0 -13  -8    0.37    0.60
   0 -13  -8    1.35    0.48
   0  13   8    1.35    0.57
   0  13   8    1.03    0.45
   0  13  -8    0.14    0.38
  -1 -13  -8   -0.12    0.55
  -1 -13  -8    0.74    0.46
  -1 -13  -8   -0.18    0.36
   1  13   8   -0.44    0.36
   1  13   8    0.28    0.56
  -1  13  -8   -0.29    0.37
  -1  13  -8    0.40    0.36
  -2 -13  -8    0.94    0.63
  -2 -13  -8    1.97    0.98
  -2 -13  -8    1.86    0.54
  -2  13  -8    1.34    0.60
   2  13   8    1.07    0.61
  -2  13  -8    1.01    0.62
  -3 -13  -8    5.06    1.29
  -3 -13  -8    6.88    1.63
  -3  13  -8    5.38    1.09
   3  13   8    4.75    1.01
  -3  13  -8    5.15    1.10
  -4 -13  -8    0.93    0.88
  -4  13  -8    1.22    0.77
   4  13   8    0.14    0.60
  -4  13  -8   -0.06    0.49
   8 -14  -8   -0.15    0.56
   8 -14  -8    0.85    0.93
   8  14  -8    0.58    0.43
  -8  14   8    1.25    0.74
   8  14  -8    0.72    0.47
   7 -14  -8    4.86    1.33
   7 -14  -8    4.31    1.09
  -7  14   8    3.25    0.89
   7  14  -8    4.55    0.72
   7  14  -8    5.54    0.71
   6 -14  -8   10.74    1.58
   6 -14  -8    9.98    1.76
  -6  14   8    6.72    1.26
   6  14  -8    9.09    0.81
   6  14  -8    7.99    0.78
  -6  14   8   11.87    1.56
   5 -14  -8    2.07    0.94
   5 -14  -8    1.15    0.66
   5  14  -8    1.29    0.44
  -5  14   8    0.28    0.53
   5  14  -8    1.21    0.40
   4 -14  -8   13.53    1.39
   4 -14  -8   13.38    2.21
  -4  14   8   11.91    1.87
  -4  14   8    9.84    1.42
   4  14  -8   11.46    0.91
   3 -14  -8    1.13    0.76
   3 -14  -8    0.16    0.44
   3  14  -8    0.27    0.32
  -3  14   8    0.31    0.39
  -3  14   8   -0.31    0.33
   2 -14  -8    6.27    1.34
  -2  14   8    6.90    1.19
  -2  14   8    4.18    0.90
   2  14  -8    7.22    0.81
   1 -14  -8   16.60    2.26
   1 -14  -8   14.82    1.33
  -1  14   8   14.96    1.37
  -1  14   8   18.62    1.63
   1  14  -8   15.76    1.21
   0 -14  -8    1.88    0.90
   0 -14  -8    0.67    0.61
   0  14  -8    1.46    0.55
   0  14   8    3.30    0.76
   0  14  -8    0.65    0.59
   0  14   8    1.23    0.62
  -1 -14  -8    1.01    0.52
  -1 -14  -8    1.58    0.54
  -1 -14  -8    1.86    0.97
   1  14   8    2.00    0.67
  -1  14  -8    1.49    0.61
  -1  14  -8    0.04    0.51
   1  14   8    0.47    0.41
  -2 -14  -8    0.81    0.81
  -2 -14  -8    2.01    0.58
  -2 -14  -8    1.75    0.69
  -2  14  -8    1.41    0.66
  -2  14  -8    3.33    0.91
   2  14   8    1.62    0.71
  -3 -14  -8   11.03    1.34
  -3 -14  -8    6.45    1.44
  -3  14  -8    6.72    1.31
  -3  14  -8    9.73    1.45
   3  14   8   11.34    1.61
  -4 -14  -8    2.89    0.93
  -4 -14  -8    0.76    0.81
  -4  14  -8    1.98    0.77
   4  14   8    3.99    0.94
  -4  14  -8    1.64    0.73
  -4  14  -8    2.51    0.80
   8 -15  -8    5.82    1.34
   8 -15  -8    7.38    1.75
  -8  15   8    7.52    1.42
   7 -15  -8    9.62    1.85
   7 -15  -8   10.07    1.68
  -7  15   8    5.69    1.24
   6 -15  -8    1.73    0.82
   6 -15  -8    1.70    0.86
  -6  15   8    0.18    0.58
   6  15  -8    1.65    0.35
   5 -15  -8    1.44    0.75
   5 -15  -8    0.49    0.65
  -5  15   8    0.37    0.57
  -5  15   8    0.08    0.49
   4 -15  -8    0.58    0.75
   4 -15  -8    0.87    0.58
  -4  15   8    0.48    0.50
  -4  15   8    0.04    0.48
   3 -15  -8   -0.06    0.39
   3 -15  -8    0.53    0.61
  -3  15   8    0.84    0.53
  -3  15   8    0.86    0.49
   2 -15  -8    0.95    0.72
  -2  15   8    0.26    0.48
   2  15  -8   -0.30    0.24
  -2  15   8    1.08    0.52
   1 -15  -8   22.48    2.39
   1 -15  -8   20.49    1.63
   1 -15  -8   21.33    1.59
   1  15  -8   24.99    1.45
  -1  15   8   19.48    1.69
   1  15  -8   20.63    1.90
  -1  15   8   17.78    1.50
   0 -15  -8   -0.01    0.46
   0 -15  -8   -0.03    0.46
   0 -15  -8   -0.47    0.45
   0  15  -8   -0.76    0.42
   0  15  -8   -0.62    0.33
   0  15   8    0.45    0.46
  -1 -15  -8    1.89    0.64
  -1 -15  -8    1.12    0.54
  -1 -15  -8    1.00    0.78
   1  15   8    1.44    0.62
   1  15   8    2.83    0.67
  -1  15  -8    2.27    0.75
  -1  15  -8    2.25    0.71
  -2 -15  -8    1.65    0.70
  -2 -15  -8    0.73    0.54
  -2 -15  -8    2.57    1.11
  -2  15  -8    3.18    0.82
  -2  15  -8    1.81    0.72
   2  15   8    2.36    0.86
  -3 -15  -8    3.78    1.22
  -3 -15  -8    3.37    0.94
   3  15   8    2.52    0.86
  -3  15  -8    2.22    1.10
  -3  15  -8    3.19    0.91
   6 -16  -8    1.55    0.75
   6 -16  -8    0.87    0.79
  -6  16   8    0.95    0.59
   5 -16  -8    6.94    1.36
   5 -16  -8    6.07    1.65
  -5  16   8    3.05    0.90
  -5  16   8    3.26    0.87
   4 -16  -8    0.42    0.98
   4 -16  -8   -0.24    0.67
  -4  16   8   -0.43    0.46
  -4  16   8    1.04    0.58
   3 -16  -8    1.20    0.63
   3 -16  -8    1.28    0.93
  -3  16   8    1.26    0.71
   3  16  -8    1.36    0.62
  -3  16   8    1.36    0.61
   2 -16  -8    0.18    0.66
   2 -16  -8   -0.44    0.48
   2  16  -8   -0.16    0.33
  -2  16   8   -0.90    0.43
  -2  16   8    0.37    0.47
   2  16  -8   -1.38    0.43
   1 -16  -8   -0.07    0.56
   1 -16  -8   -0.10    0.50
   1  16  -8    0.29    0.35
   1  16  -8    0.36    0.60
  -1  16   8   -0.16    0.39
  -1  16   8   -1.06    0.34
   0 -16  -8    0.05    0.48
   0 -16  -8    0.20    0.59
   0 -16  -8   -0.35    0.46
   0  16  -8    0.08    0.42
   0  16  -8    0.70    0.49
   0  16   8   -0.24    0.35
   0  16   8   -0.04    0.49
  -1 -16  -8    0.42    0.64
  -1 -16  -8    1.13    1.12
  -1 -16  -8   -0.14    0.58
  -1  16  -8    0.70    0.49
  -1  16  -8   -0.43    0.50
   1  16   8    0.54    0.69
  -1  16  -8   -0.14    0.41
   1  16   8   -0.23    0.35
  -2 -16  -8    0.34    0.72
  -2 -16  -8    0.60    0.72
  -2 -16  -8    1.93    0.63
   2  16   8   -0.26    0.54
  -2  16  -8    0.35    0.65
  -2  16  -8   -0.20    0.43
  -2  16  -8    0.51    0.55
   5 -17  -8   -0.58    0.62
  -5  17   8    2.11    0.70
   5  17  -8   -0.09    0.59
   4 -17  -8   -0.50    0.45
   4 -17  -8    0.55    0.75
  -4  17   8   -0.69    0.44
  -4  17   8    0.10    0.50
   4  17  -8   -0.23    0.43
   3 -17  -8    0.97    0.62
   3  17  -8   -0.07    0.60
  -3  17   8    1.27    0.67
  -3  17   8   -1.12    0.38
   2 -17  -8    0.96    0.96
   2 -17  -8    0.72    0.63
   2  17  -8    1.60    0.44
   2  17  -8    0.35    0.62
  -2  17   8    0.35    0.53
  -2  17   8    0.74    0.51
   1 -17  -8    0.16    0.67
   1 -17  -8    0.49    0.68
  -1  17   8   -0.47    0.40
  -1  17   8    1.45    0.62
   1  17  -8    0.45    0.36
   1  17  -8    0.67    0.61
   1  17  -8   -0.29    0.31
   0 -17  -8   -0.24    0.46
   0  17   8    0.48    0.67
   0  17   8    0.33    0.50
   0  17  -8    1.50    0.51
   0  17  -8    0.23    0.40
  12   0  -9   -0.51    0.44
  12   0  -9   -1.25    0.63
  12   0  -9   -0.46    0.63
 -12   0   9    0.26    0.47
 -11   0   9   -0.24    0.38
  11   0  -9    0.67    0.64
  11   0  -9    0.38    0.50
  11   0  -9   -0.60    0.59
 -10   0   9    0.94    0.57
  10   0  -9    0.46    0.94
   9   0  -9   -0.79    0.29
   9   0  -9   -1.12    0.41
   9   0  -9   -0.23    0.34
  -9   0   9    0.90    0.53
  -8   0   9    0.43    0.45
   8   0  -9    0.41    0.40
   8   0  -9    0.70    0.53
   8   0  -9   -0.16    0.34
  -7   0   9   -0.09    0.31
  -7   0   9    0.45    0.39
   7   0  -9    0.12    0.39
   7   0  -9    0.28    0.40
   7   0  -9    0.85    0.47
   6   0  -9    0.10    0.32
   6   0  -9    0.31    0.48
  -6   0   9    0.99    0.52
  -6   0   9   -0.25    0.31
  -5   0   9   -0.47    0.27
   5   0  -9    0.19    0.31
   5   0  -9   -0.07    0.32
  -4   0   9    0.17    0.33
   4   0  -9    0.02    0.30
   4   0  -9    0.13    0.37
   3   0  -9   -0.64    0.23
  -3   0   9    0.34    0.33
   3   0  -9    0.13    0.28
   3   0  -9   -0.11    0.33
   2   0  -9    0.19    0.33
   2   0  -9    0.33    0.25
   2   0  -9    0.21    0.43
  -2   0   9   -0.14    0.32
  -1   0   9   -0.06    0.30
   1   0  -9    0.35    0.24
   1   0  -9   -0.53    0.28
   1   0  -9    0.07    0.29
   0   0  -9    0.25    0.41
   0   0   9   -0.15    0.33
   0   0  -9    0.29    0.27
   0   0  -9   -0.47    0.24
  -1   0  -9    0.62    0.49
  -1   0  -9    0.16    0.36
   1   0   9   -0.53    0.21
   1   0   9    0.04    0.38
  -2   0  -9   -0.20    0.34
   2   0   9    0.49    0.30
   2   0   9    0.69    0.50
  -2   0  -9   -0.15    0.41
  -3   0  -9   -0.19    0.46
   3   0   9   -0.03    0.36
   3   0   9    0.68    0.71
  -3   0  -9   -0.33    0.32
  -4   0  -9   -0.28    0.38
   4   0   9    0.02    0.52
  -4   0  -9   -0.28    0.39
  -5   0  -9    0.02    0.56
  -6   0  -9   -0.45    0.42
  -6   0  -9   -0.32    0.76
  -7   0  -9   -0.62    0.59
  -7   0  -9    0.16    0.48
  -7   0  -9    0.40    0.80
  12  -1  -9   -0.79    0.67
 -12  -1   9    0.06    0.48
  12  -1  -9    1.00    0.69
  12   1  -9   -0.01    0.73
 -12   1   9    0.12    0.50
  12   1  -9    1.85    0.85
  12   1  -9    0.87    0.74
  11  -1  -9   -0.16    0.52
  11  -1  -9   -0.09    0.52
  11  -1  -9    0.73    0.63
 -11  -1   9    0.65    0.54
  11   1  -9    0.01    0.56
  11   1  -9    1.08    0.64
 -11   1   9    1.14    0.68
  11   1  -9    1.00    0.67
  10  -1  -9    2.27    0.78
  10  -1  -9    3.74    0.90
 -10  -1   9    2.40    0.75
  10  -1  -9    3.64    1.05
  10   1  -9    5.08    1.17
 -10   1   9    3.60    0.93
  10   1  -9    4.47    1.11
  10   1  -9    3.82    0.95
   9  -1  -9    1.80    0.66
   9  -1  -9    2.85    0.92
  -9  -1   9    1.16    0.55
   9   1  -9    1.51    0.81
   9   1  -9    0.53    0.53
   9   1  -9    2.74    0.85
  -9   1   9    2.00    0.69
   9   1  -9    2.22    0.73
   8  -1  -9    2.26    0.61
   8  -1  -9    5.35    0.98
  -8   1   9    4.22    0.97
  -8   1   9    3.95    0.94
   8   1  -9    4.04    0.86
   8   1  -9    5.95    1.09
   8   1  -9    3.63    0.75
   8   1  -9    4.53    0.97
  -7  -1   9    0.51    0.41
   7  -1  -9    0.23    0.41
   7  -1  -9    0.23    0.39
   7  -1  -9   -0.19    0.34
  -7   1   9    1.02    0.51
  -7   1   9   -0.55    0.55
   7   1  -9   -0.17    0.31
   7   1  -9   -0.13    0.36
  -6  -1   9    6.25    0.98
   6  -1  -9    7.14    1.15
   6  -1  -9    9.09    1.29
   6   1  -9    7.00    1.14
   6   1  -9    7.76    1.15
  -6   1   9    7.37    1.08
  -6   1   9    9.06    1.26
   5  -1  -9   -0.23    0.28
  -5  -1   9    0.64    0.38
   5  -1  -9    0.21    0.45
   5   1  -9    0.27    0.40
  -5   1   9    1.07    0.49
   5   1  -9    0.27    0.44
  -5   1   9    0.18    0.38
   4  -1  -9    0.27    0.30
   4  -1  -9    0.14    0.39
  -4  -1   9    0.36    0.33
   4  -1  -9   -0.25    0.21
  -4   1   9    0.17    0.36
   4   1  -9   -0.09    0.30
   4   1  -9    0.07    0.36
   3  -1  -9    2.80    0.76
   3  -1  -9    4.35    0.79
   3  -1  -9    3.29    0.67
  -3  -1   9    3.16    0.74
  -3   1   9    3.95    0.79
   3   1  -9    3.74    0.86
   3   1  -9    3.35    0.55
   3   1  -9    1.76    0.52
  -2  -1   9    0.27    0.36
   2  -1  -9    0.68    0.34
   2  -1  -9    0.46    0.53
   2  -1  -9    1.02    0.46
  -2   1   9    0.32    0.44
   2   1  -9    0.29    0.28
   2   1  -9    0.94    0.30
   2   1  -9    1.19    0.58
   1  -1  -9   84.78    3.39
  -1  -1   9   83.75    3.34
   1  -1  -9   87.54    3.15
   1  -1  -9   86.86    2.64
   1   1  -9   87.29    2.23
   1   1  -9   85.06    3.19
   1   1  -9   84.17    3.35
  -1   1   9   87.00    3.42
   0  -1  -9    7.22    0.75
   0  -1  -9    7.64    1.19
   0  -1  -9    7.08    1.09
   0  -1   9    6.94    1.07
   0   1  -9    8.07    1.13
   0   1   9    6.93    1.18
   0   1  -9    8.20    1.26
   1  -1   9    0.12    0.41
  -1  -1  -9   -0.58    0.43
  -1  -1  -9   -0.31    0.27
  -1   1  -9    0.09    0.41
  -1   1  -9    0.13    0.37
   1   1   9    0.36    0.29
   1   1   9    0.94    0.59
   2  -1   9    1.33    0.32
   2  -1   9   -0.28    0.39
  -2  -1  -9    0.54    0.41
  -2  -1  -9    0.14    0.54
   2   1   9    0.63    0.56
  -2   1  -9    0.84    0.60
   2   1   9    1.21    0.42
  -3  -1  -9    8.25    1.13
   3  -1   9    7.11    1.25
  -3  -1  -9    8.20    1.39
   3  -1   9    8.63    0.74
   3   1   9    8.26    1.38
  -3   1  -9    8.16    1.33
  -4  -1  -9   -0.53    0.44
   4  -1   9    0.38    0.55
  -4  -1  -9    1.00    0.52
   4   1   9   -0.48    0.69
  -4   1  -9    1.27    0.76
  -5  -1  -9    4.19    1.11
  -5   1  -9    2.65    0.97
   5   1   9    1.81    0.97
  -6  -1  -9    0.62    0.45
  -6  -1  -9    0.10    0.58
  -6  -1  -9    0.12    0.55
  -6   1  -9    2.22    0.84
  -6   1  -9    1.10    0.53
  -7  -1  -9    0.24    0.68
  -7  -1  -9    0.56    0.57
  -7  -1  -9    2.42    0.91
  -7   1  -9    0.54    0.52
  -7   1  -9    0.10    0.76
  12  -2  -9   -1.29    0.71
  12  -2  -9   -0.42    0.57
  12   2  -9   -0.16    0.53
  12   2  -9   -0.30    0.64
 -12   2   9    0.39    0.55
  12   2  -9   -1.92    0.64
  11  -2  -9    0.73    0.74
  11  -2  -9    0.47    0.66
  11  -2  -9    0.57    0.69
  11   2  -9    3.03    0.82
  11   2  -9   -0.45    0.53
 -11   2   9    1.88    0.76
  11   2  -9    2.24    0.85
  10  -2  -9    2.75    0.90
  10  -2  -9    2.73    0.84
  10  -2  -9    3.17    1.00
 -10   2   9    3.24    0.84
  10   2  -9    3.93    0.89
  10   2  -9    4.27    0.96
  10   2  -9    2.45    0.84
   9  -2  -9   13.96    1.48
   9  -2  -9   10.28    1.62
   9  -2  -9    9.32    1.42
   9   2  -9   14.32    1.46
   9   2  -9   15.54    1.49
   9   2  -9   12.03    1.69
  -9   2   9   15.53    1.97
   9   2  -9   13.40    1.33
   8  -2  -9    0.25    0.47
   8  -2  -9   -0.18    0.32
   8  -2  -9    0.36    0.45
   8  -2  -9   -0.11    0.36
   8   2  -9   -0.25    0.40
   8   2  -9   -0.13    0.36
   8   2  -9    0.11    0.43
  -8   2   9    0.41    0.46
   8   2  -9   -0.27    0.42
  -8   2   9    0.26    0.41
   7  -2  -9   -0.23    0.31
  -7  -2   9    0.43    0.34
   7  -2  -9    0.16    0.42
   7  -2  -9   -0.10    0.40
   7   2  -9    0.37    0.81
  -7   2   9    0.49    0.43
   7   2  -9    0.28    0.44
   7   2  -9    0.74    0.43
  -7   2   9   -0.05    0.40
   6  -2  -9    6.01    1.73
  -6  -2   9    5.07    1.24
   6  -2  -9    5.04    0.99
   6   2  -9    5.36    0.96
  -6   2   9    8.55    1.28
  -6   2   9    7.01    1.06
   6   2  -9    7.14    1.15
   5  -2  -9   11.15    1.25
   5  -2  -9    9.56    1.06
  -5  -2   9    6.93    1.02
   5  -2  -9    7.06    1.09
   5   2  -9    7.80    1.13
  -5   2   9    9.96    1.12
  -5   2   9   11.09    1.17
   5   2  -9    9.57    1.21
   4  -2  -9    8.96    0.98
   4  -2  -9    8.90    1.19
  -4  -2   9    8.05    1.13
   4  -2  -9    9.85    1.39
  -4   2   9    6.53    1.03
  -4   2   9    9.36    1.25
   4   2  -9   10.88    1.09
   4   2  -9    7.76    1.19
   3  -2  -9    1.22    0.56
   3  -2  -9    0.98    0.48
  -3  -2   9    2.50    0.63
   3   2  -9    2.13    0.47
   3   2  -9    0.81    0.50
  -3   2   9    2.08    0.63
   3   2  -9    2.15    0.63
   2  -2  -9   15.09    1.10
  -2  -2   9   16.71    1.35
   2  -2  -9   15.91    1.44
   2  -2  -9   15.68    1.26
  -2   2   9   17.98    1.44
   2   2  -9   14.46    1.36
   2   2  -9   15.46    0.75
   2   2  -9   16.09    1.31
  -1  -2   9   81.35    3.26
   1  -2  -9   82.60    2.73
   1  -2  -9   85.20    3.39
   1  -2  -9   85.94    3.50
   1   2  -9   82.92    3.30
  -1   2   9   81.27    3.33
   1   2  -9   82.46    3.15
   0  -2   9   50.80    2.51
   0  -2  -9   48.06    1.98
   0  -2  -9   47.82    2.51
   0  -2  -9   48.29    2.19
   0   2   9   49.98    2.56
   0   2  -9   46.39    2.27
   0   2  -9   47.02    2.47
  -1  -2  -9    1.31    0.51
   1  -2   9    1.23    0.69
  -1  -2  -9    0.55    0.38
  -1  -2  -9    1.19    0.63
  -1   2  -9    1.05    0.57
   1   2   9    1.09    0.69
  -2  -2  -9    8.01    1.10
  -2  -2  -9    7.84    1.26
   2  -2   9    9.77    1.46
   2   2   9    8.65    1.47
  -2   2  -9    8.16    1.35
  -3  -2  -9    6.10    1.19
   3  -2   9    6.27    1.24
  -3  -2  -9    5.88    0.91
  -3   2  -9    7.03    1.27
   3   2   9    6.34    1.32
  -4  -2  -9    4.28    0.78
  -4  -2  -9    5.15    1.24
   4  -2   9    4.32    0.68
   4   2   9    5.28    1.29
  -4   2  -9    4.36    1.04
  -5  -2  -9   -0.02    0.43
  -5  -2  -9   -0.23    0.43
   5   2   9   -0.32    0.64
  -6  -2  -9    7.83    1.49
  -6  -2  -9    7.70    1.06
  -6  -2  -9    5.36    0.89
  -6   2  -9    5.51    0.97
  -6   2  -9    8.34    1.56
  -7  -2  -9   14.63    1.41
  -7  -2  -9   12.22    2.82
  -7  -2  -9   15.96    1.34
  -7   2  -9   12.46    1.79
  -7   2  -9   14.75    1.82
  12  -3  -9    0.61    0.95
  12  -3  -9    2.40    1.02
  12   3  -9    2.11    0.96
  12   3  -9    0.24    0.78
  12   3  -9    3.13    0.87
 -12   3   9    1.14    0.69
  11  -3  -9    1.91    0.90
  11  -3  -9    0.37    0.66
  11   3  -9    2.88    0.86
 -11   3   9    1.86    0.70
  11   3  -9    1.20    0.81
  11   3  -9    1.11    0.65
  10  -3  -9   -0.78    0.37
  10  -3  -9    0.27    0.62
  10   3  -9   -0.05    0.44
 -10   3   9    0.29    0.42
  10   3  -9    0.46    0.48
  10   3  -9    0.15    0.49
   9  -3  -9    6.03    1.16
   9  -3  -9    5.74    1.11
   9   3  -9    9.38    1.45
   9   3  -9    5.50    1.07
   9   3  -9    6.69    1.08
   9   3  -9    7.75    1.24
  -9   3   9    8.83    1.42
   8  -3  -9    0.61    0.36
   8  -3  -9    1.38    0.67
   8  -3  -9    1.62    0.66
   8  -3  -9    0.77    0.56
  -8   3   9    1.51    0.62
   8   3  -9    1.53    0.65
   8   3  -9    1.44    0.64
   8   3  -9    0.33    0.47
   8   3  -9    0.89    0.60
  -8   3   9    0.71    0.50
   7  -3  -9    0.46    0.46
   7  -3  -9    0.88    0.52
   7  -3  -9    1.10    0.57
   7  -3  -9    1.13    0.46
   7   3  -9    0.40    0.63
   7   3  -9    1.52    0.61
  -7   3   9    1.28    0.59
  -7   3   9    0.50    0.49
   7   3  -9    0.67    0.55
   6  -3  -9    1.30    0.50
  -6  -3   9    1.38    0.54
   6  -3  -9    0.49    0.58
  -6   3   9    1.31    0.62
   6   3  -9    0.47    0.48
  -6   3   9    0.26    0.55
   6   3  -9    0.39    0.57
   5  -3  -9   23.11    1.59
  -5  -3   9   21.42    1.49
   5  -3  -9   21.27    1.59
   5  -3  -9   22.88    1.74
   5   3  -9   24.12    1.68
   5   3  -9   22.54    1.57
  -5   3   9   25.02    1.70
  -5   3   9   23.83    1.70
   4  -3  -9    1.35    0.52
   4  -3  -9    4.07    0.95
   4  -3  -9    2.67    0.73
  -4  -3   9    2.14    0.59
   4   3  -9    1.74    0.59
  -4   3   9    1.97    0.64
   4   3  -9    1.20    0.54
  -4   3   9    2.74    0.73
   3  -3  -9    5.89    0.97
  -3  -3   9    3.36    0.77
   3  -3  -9    6.57    1.19
   3  -3  -9    5.10    0.91
  -3   3   9    4.58    1.02
   3   3  -9    4.92    0.98
   3   3  -9    5.53    1.03
   3   3  -9    4.46    0.53
  -3   3   9    3.39    0.75
   2  -3  -9   -0.11    0.36
   2  -3  -9    0.35    0.36
  -2  -3   9    0.00    0.34
   2  -3  -9    0.23    0.27
  -2   3   9   -0.36    0.36
   2   3  -9   -0.04    0.33
   2   3  -9    0.00    0.27
   1  -3  -9   -0.22    0.28
   1  -3  -9    0.44    0.38
   1  -3  -9    0.19    0.39
  -1  -3   9    0.42    0.36
   1   3  -9    0.29    0.32
  -1   3   9   -0.33    0.29
   1   3  -9    0.39    0.45
   0  -3   9   12.06    1.25
   0  -3  -9   14.35    1.20
   0  -3  -9   14.68    1.16
   0  -3  -9   14.76    1.44
   0   3  -9   15.11    1.42
   0   3   9   12.72    1.32
  -1  -3  -9   29.34    1.65
  -1  -3  -9   26.67    1.95
  -1  -3  -9   28.37    1.64
  -1   3  -9   28.01    1.93
   1   3   9   29.42    2.05
   2  -3   9    6.76    1.08
  -2  -3  -9    8.42    1.38
  -2  -3  -9    7.03    0.98
  -2   3  -9    6.51    1.16
   2   3   9    7.49    1.31
  -3  -3  -9    0.18    0.54
   3  -3   9    0.74    0.50
  -3  -3  -9   -0.46    0.31
   3   3   9   -0.81    0.40
  -3   3  -9    0.40    0.58
   4  -3   9    1.62    0.42
  -4  -3  -9    1.25    0.51
  -4  -3  -9    1.94    0.76
  -4   3  -9    1.49    0.73
   4   3   9    2.30    0.79
  -5  -3  -9   14.42    1.96
  -5  -3  -9   13.47    1.17
   5  -3   9   14.20    1.25
   5   3   9   14.31    1.95
  -6  -3  -9    1.72    0.80
  -6  -3  -9    1.24    0.54
  -6  -3  -9    0.53    0.48
  -6   3  -9    1.30    0.70
  -6   3  -9    0.15    0.57
  -7  -3  -9    1.65    0.89
  -7  -3  -9    0.54    0.58
  -7  -3  -9    1.02    0.48
  -7   3  -9    0.74    0.70
  -7   3  -9    0.98    0.63
  12  -4  -9    6.61    1.54
 -12   4   9    3.35    0.93
  12   4  -9    1.95    0.90
  12   4  -9    1.37    0.81
  12   4  -9    5.24    1.14
  11  -4  -9    0.96    0.64
  11   4  -9    0.96    0.62
  11   4  -9    0.32    0.65
  10  -4  -9    2.03    0.94
  10   4  -9    1.44    0.68
 -10   4   9    3.01    0.84
  10   4  -9    2.16    0.77
  10   4  -9    1.66    0.68
  10   4  -9    2.86    0.78
   9  -4  -9   12.38    1.70
   9  -4  -9    9.07    1.43
   9  -4  -9   12.33    1.73
   9   4  -9   10.44    1.36
   9   4  -9   11.08    1.46
   9   4  -9   11.97    1.35
   9   4  -9   10.69    1.48
  -9   4   9   11.92    1.57
   8  -4  -9   34.60    2.25
   8  -4  -9   36.18    2.41
   8  -4  -9   38.28    3.14
   8   4  -9   35.12    2.09
  -8   4   9   35.80    2.22
  -8   4   9   34.40    2.27
   8   4  -9   40.27    2.22
   8   4  -9   36.69    3.19
   8   4  -9   36.42    2.16
   7  -4  -9    9.80    1.41
   7  -4  -9    9.49    1.37
   7  -4  -9   10.84    1.46
   7  -4  -9    9.25    1.28
   7   4  -9   10.40    1.40
   7   4  -9   10.63    1.15
  -7   4   9    9.28    1.33
  -7   4   9   10.41    1.54
   7   4  -9    7.50    1.32
  -6  -4   9    1.53    0.51
   6  -4  -9    0.90    0.40
   6  -4  -9    1.22    0.62
   6  -4  -9    1.54    0.70
   6  -4  -9    0.98    0.58
  -6   4   9    2.06    0.67
   6   4  -9    0.66    0.49
  -6   4   9    1.46    0.63
   6   4  -9    0.70    0.39
   5  -4  -9    0.39    0.49
  -5  -4   9    0.34    0.41
   5  -4  -9    0.02    0.31
   5  -4  -9    0.12    0.42
  -5   4   9    0.32    0.38
  -5   4   9   -0.65    0.26
   5   4  -9   -0.43    0.30
   5   4  -9   -0.04    0.37
  -4  -4   9    0.43    0.37
   4  -4  -9    0.28    0.39
   4  -4  -9    0.40    0.35
   4  -4  -9    0.31    0.40
  -4   4   9    0.68    0.39
   4   4  -9   -0.13    0.23
  -4   4   9    0.86    0.43
   4   4  -9   -0.22    0.30
   3  -4  -9    0.07    0.30
   3  -4  -9    0.63    0.45
  -3  -4   9   -0.46    0.25
   3  -4  -9    0.43    0.47
  -3   4   9    0.50    0.45
   3   4  -9   -0.21    0.29
   3   4  -9    0.06    0.34
  -3   4   9   -0.35    0.24
   2  -4  -9   24.01    2.05
   2  -4  -9   18.33    1.38
  -2  -4   9   20.31    1.45
   2  -4  -9   24.24    2.78
  -2   4   9   21.12    1.50
   2   4  -9   22.06    1.57
  -2   4   9   18.81    1.55
   2   4  -9   20.14    1.50
  -1  -4   9   10.79    1.11
   1  -4  -9   10.60    1.06
   1  -4  -9   11.09    1.04
  -1   4   9   10.82    1.22
   1   4  -9   11.19    1.22
   0  -4  -9    2.85    0.68
   0  -4   9    2.93    0.82
   0  -4  -9    2.84    0.62
   0  -4  -9    2.11    0.84
   0   4  -9    3.85    0.91
   0   4   9    2.71    0.76
  -1  -4  -9    7.07    1.22
  -1  -4  -9    7.45    1.00
   1  -4   9    6.89    1.11
   1   4   9    6.52    1.10
  -1   4  -9    7.27    1.18
  -2  -4  -9    2.69    0.63
   2  -4   9    2.84    0.75
  -2  -4  -9    3.76    0.86
  -2  -4  -9    5.61    1.14
  -2   4  -9    3.22    0.91
   2   4   9    2.89    0.89
  -3  -4  -9    0.99    0.44
  -3  -4  -9    0.37    0.56
  -3   4  -9    0.31    0.79
   3   4   9   -0.13    0.48
  -4  -4  -9    1.18    0.76
  -4  -4  -9    0.58    0.44
   4   4   9    0.14    0.58
  -4   4  -9    0.17    0.56
  -5  -4  -9    7.78    0.96
  -5  -4  -9    7.60    1.42
   5  -4   9    8.71    0.88
  -5   4  -9    6.55    1.28
   5   4   9    8.85    1.46
  -5   4  -9    5.85    1.56
  -6  -4  -9    0.63    0.46
  -6  -4  -9    0.50    0.41
  -6   4  -9   -0.92    0.46
   6   4   9   -0.35    0.77
  -6   4  -9   -0.91    0.44
  -7  -4  -9   -0.15    0.82
  -7   4  -9    1.37    0.71
  -7   4  -9   -0.13    0.58
  12  -5  -9    1.26    0.75
  12   5  -9    0.25    0.82
 -12   5   9    0.50    0.54
  12   5  -9   -0.57    0.73
  12   5  -9    0.90    0.79
  11  -5  -9    1.51    0.82
 -11   5   9    2.72    0.87
  11   5  -9    3.89    1.01
  11   5  -9    2.47    0.86
  11   5  -9    1.85    0.75
  10  -5  -9   -0.06    0.52
  10  -5  -9    0.96    0.58
  10   5  -9    1.64    0.67
  10   5  -9    0.87    0.55
  10   5  -9    1.19    0.55
   9  -5  -9    0.26    0.52
   9   5  -9   -0.06    0.44
   9   5  -9    0.36    0.51
  -9   5   9    1.44    0.64
   9   5  -9   -0.35    0.37
   8  -5  -9    8.44    1.37
   8  -5  -9    4.42    0.98
   8  -5  -9    7.02    1.24
   8   5  -9    6.34    1.02
  -8   5   9    6.85    1.30
  -8   5   9    7.11    1.18
   8   5  -9    6.24    1.13
   8   5  -9   10.17    1.36
   8   5  -9    7.98    1.19
   7  -5  -9    2.79    0.95
   7  -5  -9    3.79    1.03
   7  -5  -9    3.64    0.92
   7  -5  -9    1.24    1.17
  -7   5   9    1.76    0.67
  -7   5   9    1.54    0.66
   7   5  -9    2.96    0.73
   7   5  -9    0.85    0.56
   7   5  -9    2.58    0.71
   6  -5  -9   17.73    1.52
   6  -5  -9   15.28    1.53
  -6  -5   9   17.52    1.33
   6  -5  -9   17.44    1.54
   6  -5  -9   21.64    1.78
  -6   5   9   17.82    1.50
   6   5  -9   18.50    1.49
   6   5  -9   16.75    1.58
  -6   5   9   18.14    1.56
   5  -5  -9    1.05    0.44
   5  -5  -9    1.10    0.58
  -5  -5   9    0.54    0.43
   5  -5  -9    1.43    0.63
  -5   5   9    2.03    0.69
   5   5  -9    1.33    0.57
  -5   5   9    0.97    0.50
   5   5  -9    1.08    0.45
   4  -5  -9    0.08    0.41
   4  -5  -9    0.40    0.44
   4  -5  -9    0.34    0.37
  -4   5   9    0.29    0.35
  -4   5   9    0.19    0.32
   4   5  -9    0.16    0.36
   3  -5  -9    0.70    0.58
  -3  -5   9    0.29    0.35
   3  -5  -9    0.47    0.45
   3  -5  -9    0.09    0.30
   3   5  -9   -0.15    0.33
  -3   5   9    0.62    0.49
   3   5  -9    0.24    0.19
   3   5  -9    0.36    0.38
   2  -5  -9    0.50    0.40
   2  -5  -9    0.66    0.52
  -2  -5   9    0.95    0.41
   2  -5  -9    0.51    0.44
   2   5  -9    0.38    0.40
  -2   5   9    1.28    0.47
  -2   5   9    0.48    0.45
   1  -5  -9    0.17    0.39
   1  -5  -9    1.01    0.59
  -1  -5   9    0.71    0.47
   1  -5  -9    0.58    0.38
  -1   5   9    0.74    0.54
   1   5  -9    0.20    0.40
   0  -5   9   17.30    1.43
   0  -5  -9   15.31    1.34
   0  -5  -9   20.05    1.67
   0  -5  -9   16.05    1.25
   0   5  -9   16.86    1.47
   0   5   9   17.06    1.57
   1  -5   9    0.72    0.52
  -1  -5  -9    0.77    0.61
  -1  -5  -9    0.83    0.49
  -1  -5  -9    1.31    0.46
   1   5   9    0.16    0.41
  -2  -5  -9   47.65    2.08
   2  -5   9   44.00    2.59
  -2  -5  -9   44.67    2.57
  -2  -5  -9   48.76    2.50
   2   5   9   46.40    2.64
  -2   5  -9   49.11    2.64
  -3  -5  -9   19.51    1.29
  -3  -5  -9   17.51    1.70
  -3   5  -9   18.10    1.82
   3   5   9   19.82    1.83
  -4  -5  -9    2.36    0.55
  -4  -5  -9    2.67    0.89
  -4   5  -9    0.63    0.56
   4   5   9    2.42    0.93
  -5  -5  -9    1.12    0.50
  -5  -5  -9    1.34    0.71
   5   5   9    0.96    0.91
  -5   5  -9    1.41    0.76
  -6  -5  -9   10.19    1.76
   6   5   9   11.32    1.93
  -6   5  -9    8.58    1.55
  -6   5  -9   12.10    1.69
  -7  -5  -9   -1.00    0.81
  -7   5  -9    1.09    0.65
  -7   5  -9    0.96    0.80
  12   6  -9    0.56    0.68
  12   6  -9   -0.71    0.55
 -12   6   9    0.33    0.47
  12   6  -9    0.01    0.75
  11  -6  -9    2.17    0.98
  11   6  -9    3.03    0.99
 -11   6   9    5.73    1.28
  11   6  -9    5.67    1.17
  11   6  -9    2.35    0.82
  10  -6  -9    1.10    0.67
  10   6  -9    0.72    0.60
  10   6  -9    0.18    0.46
  10   6  -9    0.15    0.50
  10   6  -9    0.65    0.60
 -10   6   9   -0.25    0.43
   9  -6  -9    0.62    0.64
   9  -6  -9    0.36    0.60
  -9   6   9    0.43    0.42
   9   6  -9    0.73    0.50
   9   6  -9    0.02    0.38
   9   6  -9    0.39    0.45
   9   6  -9    0.50    0.44
   8  -6  -9    7.13    1.30
   8  -6  -9    8.23    1.39
   8  -6  -9    6.38    1.31
   8  -6  -9    7.23    1.19
   8   6  -9    7.25    1.14
  -8   6   9   10.40    1.42
   8   6  -9    7.43    1.17
   8   6  -9    5.88    0.95
   8   6  -9    6.74    1.08
  -8   6   9    9.92    1.57
   7  -6  -9    3.80    0.92
   7  -6  -9    4.01    0.97
   7  -6  -9    3.95    1.00
   7  -6  -9    2.43    0.81
   7   6  -9    4.71    0.93
  -7   6   9    3.85    0.94
   7   6  -9    5.09    0.94
  -7   6   9    3.66    0.82
   7   6  -9    4.68    0.92
  -6  -6   9    6.22    0.96
   6  -6  -9    2.85    0.86
   6  -6  -9    5.55    1.08
   6  -6  -9    4.43    1.03
   6   6  -9    6.00    1.14
   6   6  -9    5.02    0.93
  -6   6   9    5.05    1.00
  -6   6   9    4.61    0.89
   5  -6  -9    3.66    0.81
   5  -6  -9    3.14    0.96
  -5  -6   9    2.14    0.62
   5  -6  -9    3.29    0.93
   5   6  -9    3.86    1.39
  -5   6   9    3.06    0.83
  -5   6   9    3.74    0.84
   5   6  -9    3.69    0.79
   4  -6  -9   13.01    1.24
  -4  -6   9   13.60    1.33
   4  -6  -9   11.91    1.32
  -4   6   9   12.25    1.26
   4   6  -9   13.08    1.22
   4   6  -9   12.70    0.90
  -4   6   9   13.20    1.33
   4   6  -9   15.29    1.98
   3  -6  -9    4.08    0.99
   3  -6  -9    3.89    0.87
   3  -6  -9    5.44    1.01
  -3   6   9    3.62    0.80
   3   6  -9    3.90    0.79
  -3   6   9    3.16    0.79
   3   6  -9    2.77    0.94
   3   6  -9    4.13    0.49
   2  -6  -9    0.07    0.54
   2  -6  -9    0.04    0.33
   2  -6  -9    0.22    0.42
  -2   6   9    0.56    0.44
  -2   6   9    0.90    0.45
   2   6  -9    0.38    0.41
   1  -6  -9    3.60    0.86
   1  -6  -9    3.06    0.84
  -1  -6   9    3.31    0.72
   1  -6  -9    4.05    0.73
  -1   6   9    4.52    0.96
   1   6  -9    2.51    0.70
  -1   6   9    3.21    0.73
   0  -6  -9    0.29    0.50
   0  -6  -9    0.26    0.55
   0  -6   9    0.46    0.44
   0  -6  -9    1.60    0.56
   0   6  -9    0.73    0.53
   0   6   9    0.80    0.52
  -1  -6  -9    0.10    0.32
  -1  -6  -9    0.21    0.46
  -1   6  -9    0.62    0.49
   1   6   9   -0.17    0.41
  -2  -6  -9    1.54    0.52
  -2  -6  -9    1.86    0.70
  -2  -6  -9    1.86    0.75
   2   6   9    2.73    0.87
  -2   6  -9    2.56    0.79
  -3  -6  -9    0.24    0.53
  -3  -6  -9    0.46    0.34
  -3  -6  -9    0.01    0.58
  -3   6  -9    0.38    0.55
   3   6   9    0.01    0.59
  -4  -6  -9    2.88    0.62
  -4  -6  -9    3.79    1.04
   4   6   9    2.39    1.00
  -4   6  -9    2.61    0.79
  -5  -6  -9   13.61    1.03
  -5  -6  -9   15.01    1.70
  -5   6  -9   11.00    1.71
   5   6   9   15.85    2.18
  -5   6  -9   12.41    1.64
  -6  -6  -9    4.22    1.25
   6   6   9    3.93    1.33
  -6   6  -9    4.59    1.21
  -6   6  -9    2.13    1.06
  11  -7  -9   -0.12    0.73
 -11   7   9    0.49    0.50
  11   7  -9    1.55    1.07
  11   7  -9    0.63    0.67
  11   7  -9    0.79    0.63
  10  -7  -9   -0.30    0.55
  10  -7  -9    0.33    0.64
  10   7  -9   -0.50    0.38
  10   7  -9    0.13    0.53
 -10   7   9   -0.51    0.40
  10   7  -9    0.18    0.48
  10   7  -9    0.21    0.53
   9  -7  -9    0.66    0.52
   9  -7  -9    0.43    0.75
  -9   7   9    1.13    0.67
   9   7  -9    1.33    0.55
   9   7  -9    0.83    0.58
   9   7  -9    0.40    0.49
   9   7  -9    0.32    0.49
   8  -7  -9    3.14    0.91
   8  -7  -9    1.14    1.06
   8  -7  -9    2.38    0.89
   8   7  -9    1.84    0.74
  -8   7   9    2.83    1.25
   8   7  -9    2.04    0.64
   8   7  -9    1.64    0.67
   8   7  -9    2.41    0.69
  -8   7   9    2.05    0.68
   7  -7  -9    0.26    0.47
   7  -7  -9    0.13    0.50
   7  -7  -9    0.29    0.49
   7  -7  -9    1.16    0.55
   7   7  -9   -0.75    0.37
   7   7  -9   -0.35    0.43
   7   7  -9    0.90    0.45
  -7   7   9    0.07    0.39
   6  -7  -9   12.45    1.44
  -6  -7   9   13.72    1.11
   6  -7  -9   16.14    1.70
   6  -7  -9   12.67    1.27
   6  -7  -9   11.18    1.62
   6  -7  -9   11.10    1.61
   6   7  -9   13.33    1.34
   6   7  -9   12.45    1.23
  -6   7   9   11.78    1.30
  -6   7   9   14.11    1.44
   5  -7  -9    0.38    0.46
   5  -7  -9    1.59    0.56
   5  -7  -9    0.75    0.57
  -5  -7   9    1.07    0.43
   5   7  -9    0.29    0.41
   5   7  -9    0.96    0.47
  -5   7   9    1.05    0.51
  -5   7   9    0.47    0.43
  -4  -7   9    0.21    0.31
   4  -7  -9    0.20    0.44
   4  -7  -9    0.13    0.45
   4  -7  -9    0.47    0.34
   4   7  -9   -0.46    0.28
   4   7  -9   -0.20    0.25
  -4   7   9    0.16    0.35
  -4   7   9    0.10    0.40
   4   7  -9    0.42    0.40
   3  -7  -9    9.40    1.34
   3  -7  -9   10.82    1.13
   3  -7  -9    9.49    1.34
  -3  -7   9    8.59    0.93
  -3   7   9    9.91    1.15
  -3   7   9    8.53    1.13
   3   7  -9    8.21    0.59
   3   7  -9    7.80    1.11
   2  -7  -9    0.29    0.36
  -2  -7   9    0.68    0.40
   2  -7  -9    0.37    0.53
   2  -7  -9    0.07    0.44
  -2   7   9    0.42    0.47
   2   7  -9    0.36    0.38
   1  -7  -9   10.11    1.03
  -1  -7   9    8.68    1.17
   1  -7  -9   10.39    1.42
   1  -7  -9   13.77    1.40
  -1   7   9   10.66    1.11
   1   7  -9   10.62    1.16
  -1   7   9   11.58    1.26
   0  -7  -9   10.62    1.50
   0  -7  -9   11.96    1.50
   0  -7  -9   11.09    1.06
   0   7   9    9.61    1.42
   0   7  -9    8.69    1.31
  -1  -7  -9    5.62    1.15
  -1  -7  -9    3.94    0.72
  -1  -7  -9    4.48    0.99
   1   7   9    3.42    0.86
  -1   7  -9    4.27    0.94
  -2  -7  -9    3.83    1.06
  -2  -7  -9    4.72    0.78
  -2  -7  -9    3.98    1.01
  -2   7  -9    4.43    0.94
   2   7   9    3.34    0.92
  -3  -7  -9    0.34    0.34
  -3  -7  -9    0.95    0.61
  -3  -7  -9    0.37    0.62
  -3   7  -9    0.10    0.46
   3   7   9    0.14    0.56
  -4  -7  -9    0.23    0.38
  -4  -7  -9   -0.55    0.72
   4   7   9   -0.50    0.61
  -4   7  -9   -0.78    0.38
  -5  -7  -9   -0.02    0.60
  -5   7  -9   -0.25    0.39
  -5   7  -9    0.02    0.46
   5   7   9    0.57    0.73
  -6  -7  -9    0.65    0.80
  -6   7  -9    0.55    0.64
  -6   7  -9    0.98    0.66
   6   7   9    2.19    1.15
  11  -8  -9   -0.62    0.55
  11  -8  -9    0.62    0.62
 -11   8   9    1.14    0.83
  11   8  -9    0.89    0.67
  10  -8  -9    0.40    0.62
  10  -8  -9    0.48    0.71
  10   8  -9    0.47    0.57
 -10   8   9    1.23    0.71
  10   8  -9    0.40    0.54
  10   8  -9    0.06    0.52
  10   8  -9    0.64    0.66
   9  -8  -9    0.82    0.63
   9   8  -9    1.19    0.59
   9   8  -9    1.39    0.49
   9   8  -9    0.94    0.50
  -9   8   9    0.47    0.50
   8  -8  -9    1.39    1.09
   8  -8  -9    1.40    0.67
  -8   8   9    2.24    0.80
   8   8  -9    1.98    0.65
   8   8  -9    2.23    0.74
   8   8  -9    0.73    0.52
   8   8  -9    2.42    0.64
   7  -8  -9    0.66    0.54
   7  -8  -9    0.64    0.50
   7  -8  -9   -0.33    0.47
   7   8  -9    0.42    0.41
   7   8  -9    1.24    0.59
  -7   8   9   -0.23    0.42
   7   8  -9    0.01    0.39
  -7   8   9    0.15    0.45
   6  -8  -9    0.57    0.58
   6  -8  -9    0.28    0.55
   6  -8  -9    1.02    0.59
   6  -8  -9   -0.59    0.41
   6   8  -9    0.35    0.45
  -6   8   9    1.52    0.65
   6   8  -9    0.16    0.44
  -6   8   9    1.05    0.57
   5  -8  -9    1.51    0.88
   5  -8  -9    1.14    0.53
   5  -8  -9    1.29    0.68
  -5  -8   9    0.79    0.52
   5  -8  -9    1.40    0.80
  -5   8   9    2.03    0.67
  -5   8   9    1.95    0.66
   5   8  -9    1.52    0.61
   5   8  -9    1.25    0.55
   4  -8  -9    7.30    1.30
   4  -8  -9    5.08    1.40
   4  -8  -9    6.15    1.27
  -4  -8   9    4.95    0.78
  -4   8   9    5.96    0.98
   4   8  -9    4.84    0.86
  -4   8   9    5.93    1.03
   4   8  -9    5.70    1.03
   4   8  -9    6.40    0.81
  -3  -8   9    3.71    0.68
   3  -8  -9    3.80    0.97
   3  -8  -9    2.92    1.22
   3  -8  -9    2.16    0.76
  -3   8   9    1.75    0.63
  -3   8   9    4.50    0.97
   3   8  -9    2.61    0.64
   3   8  -9    3.20    0.45
   2  -8  -9    0.36    0.49
   2  -8  -9    0.43    0.50
   2  -8  -9    0.64    0.40
  -2   8   9   -0.56    0.35
  -2   8   9    0.91    0.46
   2   8  -9    0.45    0.46
   1  -8  -9   17.71    1.64
  -1  -8   9   13.34    1.20
   1  -8  -9   16.19    1.52
   1  -8  -9   17.53    1.32
  -1   8   9   14.45    1.44
   1   8  -9   18.19    1.45
  -1   8   9   17.29    1.38
   0  -8   9    0.89    0.54
   0  -8  -9    0.92    0.45
   0  -8  -9    1.07    0.60
   0  -8  -9    0.87    0.55
   0   8   9    0.95    0.57
   0   8  -9    0.75    0.48
  -1  -8  -9   -0.09    0.30
  -1  -8  -9    0.07    0.49
  -1  -8  -9   -0.50    0.37
   1   8   9   -0.65    0.38
  -1   8  -9    0.56    0.52
  -2  -8  -9    0.52    0.37
  -2  -8  -9    1.00    0.60
  -2  -8  -9    0.44    0.49
  -2   8  -9    0.44    0.45
   2   8   9    0.95    0.63
  -3  -8  -9    5.64    1.22
  -3  -8  -9    5.66    1.16
  -3  -8  -9    4.73    0.72
  -3   8  -9    4.48    0.99
   3   8   9    5.87    1.24
   4   8   9   -1.40    0.50
  -4   8  -9   -0.19    0.44
  -4   8  -9   -0.08    0.41
  -5  -8  -9    0.82    1.44
  -5   8  -9   -0.02    0.46
  -5   8  -9   -0.45    0.47
   5   8   9   -0.71    0.69
  -6  -8  -9    4.60    1.11
   6   8   9    2.89    1.17
  -6   8  -9    5.65    1.30
  -6   8  -9    4.50    1.08
  11  -9  -9    6.07    1.46
  11  -9  -9    5.26    1.30
 -11   9   9    4.43    1.11
  11   9  -9    4.74    1.10
  10  -9  -9    1.00    0.77
  10  -9  -9   -0.53    0.52
  10   9  -9    1.05    0.66
 -10   9   9    0.13    0.46
  10   9  -9   -0.37    0.40
  10   9  -9    0.32    0.53
   9  -9  -9    0.02    0.67
   9  -9  -9    0.30    0.61
   9   9  -9    0.08    0.42
   9   9  -9    0.58    0.54
  -9   9   9    0.04    0.52
   9   9  -9    0.75    0.54
   9   9  -9    0.29    0.49
   8  -9  -9    3.31    1.00
   8  -9  -9    3.53    1.08
  -8   9   9    3.30    0.91
   8   9  -9    5.11    0.93
   8   9  -9    3.07    0.72
   8   9  -9    4.15    0.91
   8   9  -9    4.59    0.81
   7  -9  -9    3.28    0.99
   7  -9  -9    3.92    1.03
   7   9  -9    2.26    0.65
   7   9  -9    3.40    0.74
   7   9  -9    2.59    0.78
  -7   9   9    1.04    0.76
   7   9  -9    3.09    0.79
   6  -9  -9    0.16    0.57
   6  -9  -9    0.07    0.50
   6   9  -9    0.41    0.44
   6   9  -9   -0.25    0.36
  -6   9   9    0.04    0.45
  -6   9   9    0.16    0.40
  -5  -9   9   11.81    0.95
   5  -9  -9   15.13    1.42
   5  -9  -9   10.82    1.54
   5  -9  -9   12.61    1.88
  -5   9   9    9.04    1.30
   5   9  -9   11.90    1.15
  -5   9   9   13.26    1.74
   5   9  -9   12.17    1.30
   4  -9  -9   41.94    2.63
  -4  -9   9   39.93    1.78
   4  -9  -9   41.63    2.43
   4  -9  -9   40.36    2.26
   4   9  -9   38.82    2.03
  -4   9   9   37.61    2.21
  -4   9   9   37.78    2.31
   3  -9  -9   17.79    1.62
  -3  -9   9   18.27    1.23
   3  -9  -9   18.06    1.43
   3  -9  -9   17.38    1.74
  -3   9   9   14.26    1.35
   3   9  -9   16.45    0.90
  -3   9   9   17.65    1.59
   3   9  -9   15.54    1.31
   2  -9  -9    1.45    0.65
   2  -9  -9    0.82    0.61
  -2  -9   9    0.72    0.38
   2  -9  -9    1.15    0.50
  -2   9   9    0.65    0.46
   2   9  -9    0.38    0.40
  -2   9   9    2.01    0.69
   1  -9  -9   14.34    1.46
   1  -9  -9   16.08    1.28
  -1  -9   9   15.47    1.21
   1  -9  -9   14.25    1.56
  -1   9   9   15.49    2.78
  -1   9   9   16.14    1.34
   1   9  -9   15.86    1.36
   0  -9  -9    0.38    0.53
   0  -9  -9    0.36    0.34
   0  -9  -9    0.26    0.44
   0   9  -9   -0.38    0.42
   0   9   9    0.24    0.38
   0   9   9    0.61    0.72
  -1  -9  -9   17.94    1.63
  -1  -9  -9   16.26    1.24
  -1  -9  -9   14.72    1.65
  -1   9  -9   15.83    1.45
   1   9   9   16.86    1.64
  -2  -9  -9    1.48    0.78
  -2  -9  -9    1.69    0.67
  -2  -9  -9    0.87    0.47
  -2   9  -9    0.98    0.60
   2   9   9    2.21    0.82
  -3  -9  -9    3.46    0.94
  -3  -9  -9    3.58    1.16
  -3  -9  -9    2.32    0.54
   3   9   9    2.15    0.76
  -3   9  -9    2.56    0.79
  -4  -9  -9    1.29    0.76
   4   9   9    2.35    0.70
  -4   9  -9    2.60    0.78
  -4   9  -9    2.39    0.80
  -5  -9  -9   -0.19    0.65
  -5   9  -9   -0.08    0.56
  -5   9  -9    1.57    0.70
   5   9   9    0.80    0.87
  10 -10  -9    3.48    1.15
  10 -10  -9    6.79    1.52
  10  10  -9    3.81    0.94
  10  10  -9    3.72    0.79
  10  10  -9    4.27    0.94
 -10  10   9    4.59    1.18
   9 -10  -9    0.93    0.76
   9 -10  -9    0.41    0.75
   9  10  -9    0.35    0.53
  -9  10   9    0.78    0.53
   9  10  -9    0.62    0.57
   9  10  -9    3.26    0.81
   8 -10  -9   11.82    2.01
   8 -10  -9   14.43    2.03
   8  10  -9   11.21    1.11
   8  10  -9   11.43    1.51
   8  10  -9   11.56    1.23
   8  10  -9   11.10    1.18
  -8  10   9    8.32    1.33
   7 -10  -9   16.52    1.75
   7 -10  -9   17.96    2.00
   7  10  -9   18.71    1.60
   7  10  -9   17.66    1.35
   7  10  -9   18.09    1.37
  -7  10   9   20.23    1.78
   7  10  -9   19.33    1.49
  -7  10   9   17.25    1.76
   6 -10  -9    4.44    1.17
  -6  10   9    6.59    1.17
   6  10  -9    6.12    0.92
   6  10  -9    6.33    0.98
  -6  10   9    4.96    1.02
   6  10  -9    6.79    1.14
   5 -10  -9    0.12    0.43
   5 -10  -9    0.11    0.54
  -5  10   9    0.05    0.53
   5  10  -9    0.21    0.64
  -5  10   9    0.26    0.38
   5  10  -9   -0.79    0.32
   4 -10  -9   22.48    1.82
   4 -10  -9   22.04    1.68
  -4 -10   9   20.52    1.21
   4 -10  -9   27.35    2.20
  -4  10   9   24.05    1.78
   4  10  -9   25.67    1.60
  -4  10   9   26.20    1.94
   3 -10  -9   27.65    1.98
  -3 -10   9   26.95    1.39
   3 -10  -9   25.86    1.74
   3 -10  -9   25.82    2.15
   3  10  -9   24.67    1.60
  -3  10   9   25.76    1.94
  -3  10   9   25.34    1.79
   3  10  -9   24.95    1.25
   2 -10  -9    2.52    0.66
   2 -10  -9    4.26    1.13
  -2 -10   9    1.50    0.49
   2 -10  -9    3.86    0.99
  -2  10   9    2.98    0.98
   2  10  -9    3.15    0.88
  -2  10   9    1.23    0.54
   1 -10  -9    1.67    0.65
   1 -10  -9    1.35    0.76
   1 -10  -9    1.10    0.47
  -1  10   9    2.55    0.66
   1  10  -9    2.23    0.65
  -1  10   9    2.19    0.70
   0 -10  -9    2.19    0.77
   0 -10  -9    2.41    0.85
   0 -10  -9    0.66    0.48
   0  10   9    0.73    0.50
   0  10  -9    1.12    0.51
   0  10   9    1.38    0.70
  -1 -10  -9   -0.31    0.40
  -1 -10  -9   -0.26    0.51
  -1 -10  -9   -0.22    0.34
   1  10   9    1.52    0.69
  -1  10  -9    0.70    0.52
  -2 -10  -9    0.96    0.44
  -2 -10  -9    1.55    0.73
  -2 -10  -9    0.99    0.68
   2  10   9    1.29    0.65
  -2  10  -9    1.44    0.60
  -3 -10  -9    5.02    1.09
  -3 -10  -9    3.97    1.25
  -3 -10  -9    5.36    0.70
   3  10   9    5.16    1.14
  -3  10  -9    2.92    0.85
  -3  10  -9    4.70    1.02
  -4 -10  -9    2.92    1.04
   4  10   9    4.07    1.08
  -4  10  -9    2.43    0.85
  -5 -10  -9    1.20    0.91
  -5  10  -9    4.29    1.05
  -5  10  -9    2.73    0.99
   5  10   9    2.04    0.90
  10 -11  -9    1.82    1.07
  10 -11  -9    2.47    1.12
  10  11  -9    3.18    0.83
  10  11  -9    1.64    0.69
  10  11  -9    2.82    0.83
   9 -11  -9   -0.30    0.60
   9 -11  -9    0.68    0.73
   9  11  -9    0.46    0.54
   9  11  -9    0.00    0.42
  -9  11   9   -0.14    0.42
   8 -11  -9    5.71    1.26
   8 -11  -9    4.54    1.37
   8  11  -9    2.74    0.78
  -8  11   9    2.97    0.87
   8  11  -9    3.89    0.82
   8  11  -9    4.22    0.78
   7 -11  -9    3.96    1.12
   7 -11  -9    3.38    1.04
  -7  11   9    3.19    0.89
   7  11  -9    4.25    0.82
   7  11  -9    3.37    0.72
   7  11  -9    4.43    0.78
  -7  11   9    6.74    1.35
   6 -11  -9    6.55    1.43
   6 -11  -9    5.08    1.19
  -6  11   9    5.42    1.09
  -6  11   9    6.35    1.22
   6  11  -9    4.99    0.87
   6  11  -9    6.02    0.91
   5 -11  -9   17.70    1.93
   5 -11  -9   14.43    1.54
  -5  11   9   16.30    1.60
  -5  11   9   19.89    1.74
   5  11  -9   20.27    1.42
   4 -11  -9    8.30    1.37
  -4 -11   9    5.57    0.63
   4 -11  -9    5.64    1.28
  -4  11   9    4.93    1.13
   4  11  -9    7.40    1.01
  -4  11   9    7.45    1.68
   3 -11  -9    1.89    0.67
   3 -11  -9    1.06    0.56
  -3 -11   9    1.81    0.45
  -3  11   9    1.66    0.60
   3  11  -9    2.06    0.58
   3  11  -9    2.34    0.48
   2 -11  -9    2.43    0.81
   2 -11  -9    3.04    0.75
   2 -11  -9    1.57    0.80
  -2  11   9    1.07    0.61
  -2  11   9    2.82    0.74
   2  11  -9    2.58    0.67
   1 -11  -9   26.40    1.91
   1 -11  -9   22.83    2.11
   1 -11  -9   20.54    2.20
   1  11  -9   24.40    1.66
  -1  11   9   25.35    1.95
  -1  11   9   25.25    1.73
   0 -11  -9    6.19    1.09
   0 -11  -9    7.74    1.41
   0 -11  -9    6.34    0.96
   0  11   9    7.28    1.08
   0  11  -9    8.01    1.15
   0  11   9    9.30    1.42
  -1 -11  -9    8.82    1.33
  -1 -11  -9    9.73    1.00
  -1 -11  -9    8.83    1.94
  -1  11  -9    8.22    1.26
   1  11   9    9.32    1.46
  -2 -11  -9   11.62    1.04
  -2 -11  -9   12.70    1.43
   2  11   9    9.73    1.54
  -2  11  -9    8.98    1.30
  -3 -11  -9    1.43    0.95
  -3 -11  -9    2.95    0.89
  -3 -11  -9    3.37    0.64
   3  11   9    2.22    0.80
  -3  11  -9    3.58    0.91
  -3  11  -9    1.28    0.62
  -4 -11  -9    0.17    0.56
  -4 -11  -9   -0.16    0.66
  -4  11  -9    0.28    0.47
   4  11   9    0.52    0.71
  -4  11  -9   -0.42    0.49
  -5 -11  -9   -0.18    0.87
  -5  11  -9    0.11    0.68
   5  11   9    1.88    1.04
  -5  11  -9    1.78    0.91
   9 -12  -9    4.11    1.17
   9 -12  -9    2.72    1.14
   9  12  -9    1.60    0.65
   9  12  -9    3.31    0.78
   9  12  -9    2.44    0.68
  -9  12   9    1.40    0.74
   8 -12  -9    4.30    1.44
   8 -12  -9    6.90    1.34
   8  12  -9    4.68    0.81
   8  12  -9    5.44    1.02
   8  12  -9    5.68    0.90
  -8  12   9    4.02    1.09
   7 -12  -9    9.46    1.95
   7 -12  -9    9.68    1.79
   7  12  -9    8.92    0.96
  -7  12   9    8.24    1.35
   7  12  -9    8.68    1.06
  -7  12   9   10.34    1.52
   6 -12  -9    7.53    1.36
   6 -12  -9    5.63    1.41
  -6  12   9    4.29    1.05
   6  12  -9    4.70    0.78
  -6  12   9    4.81    1.11
   6  12  -9    6.23    0.91
   5 -12  -9    2.11    0.79
   5 -12  -9    1.55    0.87
   5  12  -9    1.71    0.51
  -5  12   9    0.90    0.60
  -5  12   9    0.98    0.57
   4 -12  -9    1.57    1.14
   4 -12  -9    1.23    0.67
  -4  12   9    1.68    0.60
   4  12  -9    2.54    0.59
  -4  12   9   -0.32    0.58
   3 -12  -9    2.20    0.86
   3 -12  -9    1.25    0.66
  -3  12   9    0.70    0.44
   3  12  -9    1.58    0.58
  -3  12   9    0.77    0.68
   2 -12  -9    1.15    0.53
   2 -12  -9    0.82    0.72
   2 -12  -9    0.82    0.54
  -2  12   9    1.72    0.71
  -2  12   9    0.33    0.48
   2  12  -9    0.03    0.44
   1 -12  -9   -0.20    0.61
   1 -12  -9    1.01    0.68
   1 -12  -9   -0.03    0.38
  -1  12   9    1.31    0.58
  -1  12   9    1.23    0.70
   1  12  -9    0.70    0.43
   0 -12  -9    3.46    0.74
   0 -12  -9    2.80    1.49
   0 -12  -9    4.44    0.93
   0  12   9    3.60    0.75
   0  12  -9    3.38    0.81
   0  12   9    2.28    0.85
  -1 -12  -9   -0.03    0.50
  -1 -12  -9    0.01    0.54
  -1 -12  -9   -0.08    0.38
  -1  12  -9   -0.43    0.37
   1  12   9    0.56    0.61
  -2 -12  -9    3.76    0.70
  -2 -12  -9    3.41    1.12
  -2 -12  -9    3.71    0.93
  -2  12  -9    2.60    0.90
  -2  12  -9    3.41    0.84
  -3 -12  -9    4.45    1.30
  -3  12  -9    1.58    0.75
  -3  12  -9    2.80    0.92
   3  12   9    2.15    0.87
  -4 -12  -9   -1.35    0.61
  -4 -12  -9    0.66    0.74
  -4  12  -9    0.10    0.62
  -4  12  -9   -0.44    0.63
   4  12   9    0.16    0.70
   9 -13  -9    4.91    1.25
   9 -13  -9    2.38    1.21
  -9  13   9    3.32    1.10
   9  13  -9    4.18    0.82
   9  13  -9    3.57    0.83
   8 -13  -9   -0.28    0.45
   8 -13  -9   -1.54    0.53
  -8  13   9   -0.46    0.49
   8  13  -9   -0.14    0.45
   8  13  -9    0.13    0.51
   8  13  -9   -0.49    0.37
   7 -13  -9    0.52    0.74
   7 -13  -9   -0.06    0.68
   7  13  -9    0.48    0.45
   7  13  -9    0.73    0.47
   7  13  -9    0.11    0.41
  -7  13   9    0.94    0.56
   6 -13  -9    2.74    1.03
   6 -13  -9    1.39    0.76
   6  13  -9    2.08    0.59
  -6  13   9    2.33    0.71
   6  13  -9    2.56    0.57
  -6  13   9    1.80    0.79
   5 -13  -9    4.83    1.13
   5 -13  -9    2.96    1.15
  -5  13   9    3.07    0.88
  -5  13   9    1.31    0.74
   5  13  -9    3.54    0.70
   4 -13  -9    2.20    0.98
   4 -13  -9    1.99    0.79
  -4  13   9    0.67    0.47
  -4  13   9    1.78    0.96
   4  13  -9    2.34    0.58
   3 -13  -9    0.26    0.69
   3 -13  -9    0.98    0.59
   3  13  -9    1.09    0.46
  -3  13   9    0.78    0.50
   2 -13  -9    0.24    0.65
   2 -13  -9    0.63    0.49
  -2  13   9    0.72    0.60
  -2  13   9   -0.31    0.38
   2  13  -9    0.73    0.43
   1 -13  -9    3.64    0.86
   1 -13  -9    5.06    1.39
   1 -13  -9    3.09    0.70
  -1  13   9    3.72    0.88
   1  13  -9    3.57    0.81
  -1  13   9    4.72    1.27
   0 -13  -9    2.07    0.90
   0 -13  -9    4.76    1.00
   0 -13  -9    2.60    0.85
   0  13  -9    3.37    0.79
   0  13   9    3.91    0.78
  -1 -13  -9    1.41    0.59
  -1 -13  -9    0.58    0.61
  -1 -13  -9    1.03    0.58
   1  13   9   -0.13    0.38
  -1  13  -9    2.41    0.76
   1  13   9    1.86    1.17
  -2 -13  -9    0.99    0.58
  -2 -13  -9   -0.42    0.44
  -2  13  -9    0.29    0.59
   2  13   9    0.09    0.65
  -2  13  -9    1.05    0.52
  -3 -13  -9    2.21    0.78
  -3 -13  -9    1.26    0.91
  -3  13  -9    2.15    0.69
   3  13   9    0.61    0.82
  -3  13  -9    2.63    0.82
   8 -14  -9   -0.74    0.69
   8 -14  -9   -0.70    0.64
   8  14  -9   -0.32    0.37
  -8  14   9   -0.02    0.90
   8  14  -9    0.64    0.53
   8  14  -9    0.12    0.47
   7 -14  -9    3.49    1.23
   7 -14  -9    2.02    0.86
  -7  14   9    1.91    0.84
   7  14  -9    2.33    0.56
   7  14  -9    2.76    0.58
   7  14  -9    1.55    0.54
   6 -14  -9    0.14    0.58
   6 -14  -9    0.09    0.63
   6  14  -9   -0.22    0.34
   6  14  -9   -0.48    0.30
  -6  14   9    0.26    0.59
   6  14  -9   -0.31    0.38
  -6  14   9   -1.22    0.57
   5 -14  -9    8.55    1.45
   5 -14  -9    8.24    1.68
  -5  14   9    6.92    1.40
   5  14  -9    8.29    0.84
   5  14  -9    5.65    0.81
   4 -14  -9    5.11    1.41
   4 -14  -9    6.86    1.27
  -4  14   9    9.46    1.51
   4  14  -9    7.42    0.82
  -4  14   9    8.42    1.28
   3 -14  -9   -0.22    0.50
   3 -14  -9   -0.51    0.37
   3  14  -9    0.23    0.40
  -3  14   9   -0.13    0.31
  -3  14   9   -0.38    0.48
   2 -14  -9    2.47    1.06
   2 -14  -9    3.24    0.82
   2  14  -9    2.39    0.65
  -2  14   9    3.20    0.85
   1 -14  -9    3.14    0.79
   1 -14  -9    2.91    0.85
   1 -14  -9    1.90    1.00
  -1  14   9    1.02    0.57
   1  14  -9    1.64    0.60
  -1  14   9    2.47    0.82
   0 -14  -9    2.40    1.04
   0 -14  -9    1.88    0.70
   0  14   9    1.06    0.56
   0  14   9    0.77    0.65
   0  14  -9    2.05    0.69
  -1 -14  -9   -0.03    0.54
  -1 -14  -9   -0.04    0.54
  -1 -14  -9    0.51    0.48
  -1  14  -9    0.33    0.47
   1  14   9   -0.31    0.57
   1  14   9   -0.45    0.34
  -1  14  -9   -0.38    0.42
  -2 -14  -9   -0.31    0.54
  -2 -14  -9    0.34    0.55
   2  14   9    0.09    0.73
  -2  14  -9    0.39    0.47
  -2  14  -9    0.39    0.52
  -3 -14  -9    5.17    1.32
   3  14   9    8.29    1.87
  -3  14  -9    5.77    1.18
  -3  14  -9    8.04    1.47
   7 -15  -9    2.10    0.96
   7 -15  -9    1.56    0.95
   7  15  -9    1.27    0.41
  -7  15   9    1.02    0.88
   6 -15  -9    1.70    0.84
   6 -15  -9    2.26    1.15
  -6  15   9    2.40    0.83
  -6  15   9    2.56    0.78
   5 -15  -9    0.23    0.69
   5 -15  -9   -0.35    0.55
  -5  15   9    0.28    0.65
  -5  15   9    0.62    0.57
   5  15  -9    0.46    0.37
   4 -15  -9    2.03    0.75
   4 -15  -9    0.31    0.61
  -4  15   9    1.12    0.81
  -4  15   9    2.60    0.84
   4  15  -9    0.80    0.38
   3 -15  -9    2.28    0.78
   3 -15  -9    4.32    1.36
   3  15  -9    1.92    0.54
  -3  15   9    1.87    0.60
  -3  15   9    1.34    0.70
   2 -15  -9   -0.41    0.43
   2 -15  -9    1.19    0.75
  -2  15   9    1.03    0.65
  -2  15   9    1.78    0.65
   2  15  -9    0.52    0.44
   1 -15  -9   -0.01    0.61
  -1  15   9   -0.31    0.61
   1  15  -9    0.35    0.48
  -1  15   9   -0.56    0.50
   0 -15  -9    0.39    0.58
   0 -15  -9    0.77    0.71
   0 -15  -9   -0.84    0.69
   0  15   9    2.36    0.73
   0  15   9   -0.37    0.37
  -1 -15  -9    4.38    1.00
  -1 -15  -9    1.52    0.84
   1  15   9    4.22    0.96
   1  15   9    5.96    0.94
  -1  15  -9    2.32    0.95
  -1  15  -9    3.14    0.81
  -2 -15  -9    0.96    0.79
  -2 -15  -9    2.18    0.74
  -2 -15  -9    1.10    0.80
  -2  15  -9   -0.72    0.58
  -2  15  -9    1.22    0.75
   2  15   9    0.84    0.65
   5 -16  -9    0.07    0.68
   5 -16  -9    2.01    1.08
   5  16  -9    0.84    0.38
  -5  16   9    0.64    0.54
  -5  16   9    1.86    0.75
   4 -16  -9   16.88    2.41
  -4  16   9   14.90    1.86
  -4  16   9   18.61    1.77
   3 -16  -9    1.58    0.94
  -3  16   9    1.14    0.70
   3  16  -9    1.26    0.44
  -3  16   9    0.65    0.51
   2 -16  -9    6.89    1.74
   2 -16  -9    4.43    1.06
  -2  16   9    6.02    1.09
   2  16  -9    5.76    1.28
  -2  16   9    6.28    1.18
   2  16  -9    5.84    0.84
   1 -16  -9   12.04    2.27
   1 -16  -9   13.48    1.66
  -1  16   9   11.55    1.62
   1  16  -9   11.28    1.80
  -1  16   9   13.10    1.60
   1  16  -9   14.32    1.22
   0 -16  -9    0.50    0.61
   0 -16  -9    0.65    0.63
   0  16   9    1.23    0.68
   0  16  -9    1.70    0.85
   0  16  -9    1.24    0.46
   0  16   9   -0.31    0.45
 -12   0  10    9.87    1.46
  12   0 -10    8.98    2.15
  12   0 -10   14.36    2.09
  12   0 -10   11.72    1.79
  11   0 -10    9.44    1.53
  11   0 -10   10.01    1.65
  11   0 -10    8.49    1.39
 -11   0  10    8.03    1.28
  10   0 -10    0.75    0.64
 -10   0  10   -0.38    0.33
  10   0 -10    0.34    0.67
  10   0 -10    0.09    0.50
  -9   0  10    1.65    0.66
   9   0 -10    2.37    0.79
   9   0 -10    0.62    0.51
   9   0 -10    0.36    0.65
   8   0 -10    8.17    1.35
   8   0 -10   11.62    1.50
   8   0 -10    9.68    1.44
  -8   0  10    9.17    1.42
   7   0 -10    4.04    0.96
  -7   0  10    4.02    0.84
   7   0 -10    5.18    1.07
   7   0 -10    3.54    0.82
  -7   0  10    4.67    0.97
   6   0 -10   12.35    1.28
   6   0 -10   11.48    1.33
  -6   0  10   10.27    1.43
  -5   0  10    0.96    0.53
   5   0 -10    0.34    0.41
   5   0 -10    0.56    0.39
   5   0 -10    0.49    0.53
   4   0 -10   49.57    2.57
  -4   0  10   44.38    2.39
   4   0 -10   47.25    2.05
   3   0 -10   13.54    1.29
   3   0 -10   14.02    1.43
  -3   0  10   13.68    1.36
   3   0 -10   14.43    1.02
   2   0 -10    0.58    0.33
   2   0 -10    0.80    0.52
   2   0 -10    1.99    0.76
  -2   0  10    1.36    0.56
   1   0 -10   -0.28    0.21
  -1   0  10   -0.14    0.34
   1   0 -10    0.47    0.41
   1   0 -10    0.18    0.44
   0   0 -10    0.44    0.56
   0   0 -10   -0.04    0.25
   0   0  10   -0.09    0.46
   0   0 -10   -0.30    0.31
  -1   0 -10    3.26    0.77
  -1   0 -10    3.73    1.02
  -2   0 -10    4.64    1.08
   2   0  10    6.96    0.70
   2   0  10    6.14    1.24
  -2   0 -10    8.33    1.45
  -3   0 -10    0.39    0.58
   3   0  10    0.12    0.46
  -3   0 -10   -0.49    0.44
   3   0  10    1.21    0.68
  -4   0 -10    1.18    0.50
  -4   0 -10   -0.41    0.45
  -5   0 -10    0.27    0.61
  -5   0 -10    0.52    0.58
  -6   0 -10    2.23    0.77
  -6   0 -10    4.86    1.37
  -6   0 -10    2.64    0.91
  12  -1 -10    0.04    0.62
  12  -1 -10    1.06    0.97
  12   1 -10    0.62    0.91
  12   1 -10    1.15    0.81
  12   1 -10    2.03    0.94
 -12   1  10    1.34    0.70
 -11  -1  10    0.83    0.55
  11  -1 -10    0.10    0.60
  11  -1 -10    0.14    0.70
  11  -1 -10   -0.99    0.51
  11   1 -10   -0.26    0.54
  11   1 -10   -0.32    0.65
 -11   1  10   -0.76    0.36
  11   1 -10    0.10    0.87
 -10  -1  10    0.81    0.58
  10  -1 -10    1.63    0.85
  10  -1 -10    2.31    0.93
  10   1 -10    1.64    0.68
  10   1 -10    0.42    0.70
 -10   1  10    1.48    0.62
  10   1 -10    1.79    0.70
   9  -1 -10    2.38    0.92
   9  -1 -10    2.29    0.76
   9  -1 -10    1.08    0.61
   9   1 -10    2.17    0.82
   9   1 -10    2.92    0.81
  -9   1  10    1.47    0.68
   9   1 -10    0.77    0.66
   8  -1 -10    0.91    0.65
   8  -1 -10   -0.23    0.44
   8  -1 -10    0.46    0.53
   8   1 -10    1.88    0.77
   8   1 -10    0.83    0.60
  -8   1  10    0.78    0.51
   8   1 -10    1.94    0.74
   8   1 -10    0.91    0.53
   7  -1 -10   -0.09    0.38
  -7  -1  10    0.57    0.45
   7  -1 -10    0.55    0.37
   7  -1 -10    0.85    0.50
   7   1 -10    0.19    0.41
   7   1 -10   -0.04    0.39
  -7   1  10    0.05    0.39
  -7   1  10    0.15    0.40
   7   1 -10    0.28    0.38
   6  -1 -10    1.87    0.68
  -6  -1  10    2.26    0.73
   6   1 -10    1.92    0.65
  -6   1  10    2.70    0.77
  -6   1  10    2.00    0.63
   6   1 -10    1.60    0.65
   5  -1 -10    0.12    0.25
   5  -1 -10   -0.33    0.27
  -5   1  10    0.62    0.52
   5   1 -10   -0.48    0.31
   5   1 -10    0.18    0.45
   4  -1 -10    0.36    0.61
   4  -1 -10    1.82    0.55
  -4  -1  10    0.35    0.42
   4   1 -10    0.30    0.59
   4   1 -10    0.50    0.49
   4   1 -10    0.05    0.28
  -4   1  10    0.18    0.37
   3  -1 -10    8.02    1.18
   3  -1 -10   11.60    1.18
  -3  -1  10   10.20    1.17
   3  -1 -10    9.06    0.93
   3   1 -10    9.17    1.26
  -3   1  10   13.35    1.35
   3   1 -10   12.14    1.49
   3   1 -10   11.22    0.84
  -2  -1  10   13.30    1.31
   2  -1 -10   12.93    1.24
   2  -1 -10   13.91    1.45
   2  -1 -10   13.63    0.99
   2   1 -10   12.47    1.25
   2   1 -10   13.02    0.80
  -2   1  10   13.06    1.34
   2   1 -10   13.42    1.39
   1  -1 -10    6.41    1.04
   1  -1 -10    5.27    0.74
  -1  -1  10    4.57    1.03
   1  -1 -10    4.76    1.01
  -1   1  10    2.43    0.80
   1   1 -10    5.14    1.09
   1   1 -10    4.15    0.83
   0  -1 -10    3.50    0.90
   0  -1 -10    3.69    0.65
   0  -1 -10    2.22    0.65
   0  -1  10    2.60    1.15
   0   1 -10    2.25    0.82
   0   1  10    3.21    0.82
   0   1 -10    3.76    0.88
  -1  -1 -10   19.22    1.50
  -1  -1 -10   17.62    1.69
   1  -1  10   20.30    1.75
  -1   1 -10   20.68    2.96
  -1   1 -10   20.29    1.77
   1   1  10   19.73    1.76
   1   1  10   18.42    1.13
  -2  -1 -10    1.65    0.61
  -2  -1 -10    1.51    0.70
   2  -1  10    1.54    0.78
  -2   1 -10    2.84    0.75
  -2   1 -10    2.01    0.78
   2   1  10    2.28    0.76
  -3  -1 -10    0.40    0.41
  -3  -1 -10    0.33    0.52
   3   1  10    1.11    0.53
  -3   1 -10    0.41    0.52
  -4  -1 -10   -0.40    0.89
   4  -1  10    2.84    0.68
  -4  -1 -10   -0.03    0.49
  -4   1 -10    1.36    0.66
  -4   1 -10    0.77    0.67
  -5  -1 -10    0.96    0.63
  -5  -1 -10    0.33    0.56
  -5   1 -10    0.10    0.66
  -6  -1 -10   -0.27    0.49
  -6  -1 -10   -0.17    0.67
  -6  -1 -10    0.59    0.79
  -6   1 -10   -0.85    0.60
  12  -2 -10    0.15    0.80
  12  -2 -10    0.11    0.60
  12   2 -10    3.04    0.91
  12   2 -10    0.67    0.70
 -12   2  10    0.02    0.51
  11  -2 -10    7.72    1.51
  11  -2 -10   10.34    2.48
  11   2 -10    8.39    1.47
 -11   2  10    7.25    1.27
  11   2 -10    7.12    1.32
  11   2 -10    8.99    1.37
  10  -2 -10    4.95    1.17
  10  -2 -10    6.33    1.27
  10  -2 -10    5.10    1.22
  10   2 -10    3.80    0.95
  10   2 -10    4.93    1.14
  10   2 -10    4.90    1.21
 -10   2  10    5.93    1.08
   9  -2 -10    0.82    0.64
   9  -2 -10    2.03    1.08
   9  -2 -10    0.15    0.46
   9   2 -10    1.34    0.67
   9   2 -10    2.89    0.82
  -9   2  10    0.60    0.51
   9   2 -10    1.22    0.72
   8  -2 -10    0.09    0.47
   8  -2 -10    0.83    0.54
   8  -2 -10    0.17    0.50
   8   2 -10    0.45    0.47
  -8   2  10    0.66    0.56
   8   2 -10    0.15    0.41
   8   2 -10    0.10    0.48
   8   2 -10    0.52    1.03
   7  -2 -10    0.45    0.55
   7  -2 -10   -0.51    0.25
  -7  -2  10    0.14    0.39
   7  -2 -10   -0.23    0.41
  -7   2  10    0.30    0.33
  -7   2  10    0.18    0.43
   7   2 -10   -0.20    0.27
   7   2 -10    0.19    0.44
   6  -2 -10   20.79    1.65
  -6  -2  10   20.47    1.57
   6  -2 -10   19.12    1.61
   6  -2 -10   18.40    1.66
   6   2 -10   15.84    1.41
  -6   2  10   17.69    1.53
  -6   2  10   18.33    2.06
   6   2 -10   16.01    1.55
   5  -2 -10    1.88    0.57
   5  -2 -10    2.02    0.72
  -5  -2  10    1.89    0.62
   5  -2 -10    1.36    0.57
   5   2 -10    1.29    0.54
   5   2 -10    1.14    0.60
  -5   2  10    2.88    0.75
  -5   2  10    0.95    0.56
   4  -2 -10   37.26    3.03
   4  -2 -10   44.39    2.58
   4  -2 -10   48.30    2.61
   4   2 -10   50.67    2.49
  -4   2  10   44.40    2.43
   4   2 -10   46.60    2.47
   4   2 -10   49.78    1.95
   3  -2 -10    0.23    0.31
   3  -2 -10   -0.11    0.41
   3  -2 -10   -0.38    0.27
  -3  -2  10    0.11    0.38
   3   2 -10    0.51    0.44
  -3   2  10   -0.15    0.35
   3   2 -10    0.04    0.23
   2  -2 -10    6.79    1.15
   2  -2 -10    6.03    0.99
  -2  -2  10    6.57    1.10
   2   2 -10    6.81    1.21
   2   2 -10    5.18    1.52
  -2   2  10    5.67    1.03
   1  -2 -10    5.28    0.80
   1  -2 -10    5.23    0.96
   1  -2 -10    6.27    1.15
  -1   2  10    5.22    1.11
   1   2 -10    7.85    1.24
   0  -2  10   27.35    1.96
   0  -2 -10   28.26    1.76
   0  -2 -10   30.35    1.59
   0  -2 -10   27.47    2.02
   0   2 -10   27.21    1.83
   0   2  10   26.92    1.98
   0   2 -10   29.14    2.02
   1  -2  10    2.87    0.89
  -1  -2 -10    2.00    0.72
  -1  -2 -10    5.56    0.94
  -1  -2 -10    7.15    1.68
  -1   2 -10    3.62    0.86
   1   2  10    3.87    0.88
  -1   2 -10    5.06    1.08
   2  -2  10   14.15    1.56
  -2  -2 -10   10.00    1.58
  -2  -2 -10   14.02    1.21
  -2   2 -10   12.94    1.79
   2   2  10   12.43    1.87
  -3  -2 -10    1.08    0.57
  -3  -2 -10    3.75    1.09
  -3   2 -10    1.85    0.75
   3   2  10    3.45    0.96
  -4  -2 -10    1.50    0.82
  -4   2 -10    1.21    0.67
   4   2  10    0.27    0.72
  -5  -2 -10    2.15    0.76
  -5  -2 -10    4.16    1.10
  -5   2 -10    3.24    1.07
  -6  -2 -10    1.46    0.86
  -6  -2 -10    1.96    0.66
  -6  -2 -10    0.83    0.85
  -6   2 -10    0.61    0.61
  -6   2 -10   -0.72    0.62
  12  -3 -10   -0.59    0.56
 -12   3  10   -0.42    0.46
  12   3 -10    0.04    0.51
  12   3 -10    0.13    0.63
  12   3 -10    0.79    0.78
  11  -3 -10   -0.81    0.51
  11  -3 -10   -0.94    0.59
  11   3 -10    0.19    0.55
  11   3 -10   -0.30    0.51
 -11   3  10   -0.34    0.40
  11   3 -10    2.27    1.37
  10  -3 -10    1.48    0.78
  10  -3 -10    3.66    1.05
  10  -3 -10    1.54    0.91
  10   3 -10    1.22    0.70
  10   3 -10    1.80    0.83
  10   3 -10    0.62    0.66
   9  -3 -10    0.04    0.61
   9  -3 -10    1.12    0.69
   9  -3 -10    1.33    0.60
  -9   3  10    1.00    0.57
   9   3 -10    1.69    0.70
   9   3 -10   -0.15    0.90
   9   3 -10    0.42    0.54
   8  -3 -10    0.52    0.59
   8  -3 -10    0.18    0.41
   8  -3 -10   -0.13    0.40
   8   3 -10    0.87    0.50
   8   3 -10   -0.19    0.43
   8   3 -10    0.56    0.44
  -8   3  10   -1.29    0.46
  -8   3  10   -0.49    0.30
   8   3 -10   -0.29    0.50
   7  -3 -10   33.96    2.29
   7  -3 -10   29.61    2.06
  -7   3  10   33.84    2.18
  -7   3  10   31.36    2.11
   7   3 -10   29.56    2.09
   7   3 -10   32.14    2.01
   6  -3 -10   10.46    1.45
  -6  -3  10   10.77    1.85
   6  -3 -10   10.06    1.50
   6   3 -10   11.16    1.24
  -6   3  10    8.27    1.16
  -6   3  10    8.09    1.19
   6   3 -10    9.00    1.33
   5  -3 -10   -0.38    0.39
   5  -3 -10   -0.24    0.34
   5  -3 -10    0.43    0.36
  -5  -3  10   -0.21    0.35
   5   3 -10    0.57    0.46
   5   3 -10    0.50    0.48
  -5   3  10    0.87    0.57
  -5   3  10    0.61    0.45
   4  -3 -10    0.42    0.37
  -4  -3  10    1.79    0.58
   4  -3 -10    1.10    0.62
   4  -3 -10    0.78    0.46
  -4   3  10   -0.22    0.32
   4   3 -10    1.31    0.65
   4   3 -10    0.48    0.41
  -4   3  10    0.43    0.43
   3  -3 -10    3.68    0.80
   3  -3 -10    3.40    0.77
   3  -3 -10    1.70    0.69
  -3  -3  10    4.71    1.01
   3   3 -10    2.33    0.62
   3   3 -10    4.21    0.54
  -3   3  10    4.63    0.98
   3   3 -10    2.98    0.79
  -2  -3  10   33.63    2.08
   2  -3 -10   37.98    2.31
   2  -3 -10   33.57    1.93
   2  -3 -10   37.36    1.86
  -2   3  10   35.36    2.19
   2   3 -10   34.12    2.12
   2   3 -10   31.32    1.99
   1  -3 -10    9.91    1.08
   1  -3 -10   11.65    1.06
  -1  -3  10   10.65    1.20
   1  -3 -10   12.69    1.64
   1   3 -10   11.46    1.53
   1   3 -10   12.42    1.25
  -1   3  10   12.40    1.64
   0  -3  10    0.70    0.63
   0  -3 -10    2.53    0.87
   0  -3 -10    1.90    0.63
   0   3 -10    1.45    0.57
   0   3 -10    1.28    0.69
   0   3  10    1.64    0.74
  -1  -3 -10    4.43    1.05
  -1  -3 -10    3.06    0.77
   1  -3  10    3.17    0.86
  -1  -3 -10    4.72    0.84
  -1   3 -10    2.81    0.85
   1   3  10    1.39    0.68
  -2  -3 -10    0.07    0.50
  -2  -3 -10   -0.14    0.36
   2   3  10    0.10    0.55
  -2   3 -10    0.39    0.55
  -3  -3 -10    1.53    0.59
  -3  -3 -10    3.77    1.02
   3   3  10    1.75    0.85
  -4  -3 -10    4.66    0.84
  -4  -3 -10    4.45    1.08
   4   3  10    3.99    0.96
  -5  -3 -10    1.08    0.63
  -5  -3 -10    0.88    0.76
  -5   3 -10    1.08    0.63
  -6  -3 -10    0.49    0.77
  -6  -3 -10    0.64    0.53
  -6  -3 -10    0.76    0.70
  -6   3 -10    2.68    0.87
  -6   3 -10    0.46    0.66
  12  -4 -10    0.88    0.80
  12   4 -10    2.01    0.91
 -12   4  10    1.45    0.81
  12   4 -10    3.64    0.99
  11  -4 -10    1.22    0.80
  11   4 -10    1.93    0.76
 -11   4  10    0.47    0.56
  11   4 -10    2.21    0.99
  11   4 -10    0.09    0.74
  10  -4 -10   11.29    1.64
  10  -4 -10    9.48    1.63
  10   4 -10    9.45    1.52
  10   4 -10    9.59    1.48
  10   4 -10    8.27    1.32
 -10   4  10   10.10    1.62
   9  -4 -10   19.68    3.12
   9  -4 -10   16.78    1.80
   9  -4 -10   16.53    1.70
   9   4 -10   11.92    1.77
  -9   4  10   14.96    1.61
   9   4 -10   14.02    1.42
   9   4 -10   14.46    1.56
   8  -4 -10    2.46    0.83
   8  -4 -10    3.49    0.90
   8  -4 -10    2.54    0.89
  -8   4  10    1.98    0.81
   8   4 -10    1.92    0.73
   8   4 -10    1.90    0.72
   8   4 -10    3.51    0.89
   8   4 -10    2.39    0.74
  -8   4  10    3.65    0.86
   7  -4 -10    0.29    0.49
   7  -4 -10    1.22    0.64
   7  -4 -10    0.17    0.55
   7   4 -10    0.62    0.54
  -7   4  10    0.58    0.50
  -7   4  10   -0.49    0.37
   7   4 -10    0.15    0.44
   6  -4 -10    0.88    0.61
   6  -4 -10    0.31    0.52
   6   4 -10    0.48    0.40
  -6   4  10    0.51    0.49
   6   4 -10    0.69    0.49
  -6   4  10    0.30    0.44
   5  -4 -10   10.46    1.18
   5  -4 -10   10.98    1.56
   5  -4 -10    9.01    1.43
   5   4 -10   12.91    1.30
  -5   4  10   11.07    1.47
   5   4 -10   10.39    1.39
  -5   4  10   10.43    1.46
   4  -4 -10   22.34    1.82
  -4  -4  10   19.81    1.49
   4  -4 -10   19.60    1.56
   4  -4 -10   21.03    1.61
  -4   4  10   22.73    1.66
   4   4 -10   21.30    1.65
  -4   4  10   20.23    1.67
   4   4 -10   19.76    1.58
   3  -4 -10   38.24    2.35
  -3  -4  10   33.77    1.97
   3  -4 -10   34.70    1.97
   3  -4 -10   33.57    2.09
  -3   4  10   35.36    2.20
   3   4 -10   34.58    2.08
   3   4 -10   35.45    1.20
  -3   4  10   36.43    2.10
   3   4 -10   33.66    2.08
   2  -4 -10   33.13    1.93
   2  -4 -10   32.84    1.85
  -2  -4  10   29.24    1.87
   2  -4 -10   29.24    2.08
  -2   4  10   33.52    2.15
   2   4 -10   31.39    1.98
   2   4 -10   34.25    2.07
  -1  -4  10   18.18    1.52
   1  -4 -10   17.88    1.64
   1  -4 -10   17.80    1.37
   1   4 -10   16.35    1.51
  -1   4  10   18.69    1.68
   1   4 -10   16.46    1.48
   0  -4 -10   -0.38    0.43
   0  -4  10   -0.44    0.39
   0  -4 -10    0.40    0.41
   0  -4 -10    0.20    0.39
   0   4 -10   -0.26    0.37
   0   4  10   -0.30    0.43
  -1  -4 -10   -0.03    0.53
  -1  -4 -10    1.19    0.62
  -1  -4 -10   -0.03    0.34
   1  -4  10    1.12    0.80
   1   4  10    1.00    0.59
  -1   4 -10    0.37    0.48
  -2  -4 -10    2.56    0.75
  -2  -4 -10    3.30    0.77
  -2  -4 -10    2.86    0.92
  -2   4 -10    2.36    0.88
   2   4  10    2.77    0.94
  -3  -4 -10    0.21    0.41
  -3  -4 -10    1.08    0.70
  -3   4 -10    1.58    0.78
   3   4  10    0.57    0.93
  -4  -4 -10    6.95    1.30
  -4  -4 -10    5.47    0.92
   4   4  10    5.88    1.33
  -4   4 -10    5.65    1.24
  -5  -4 -10    9.91    1.69
  -5  -4 -10    7.39    0.99
  -5   4 -10    6.73    1.54
  -6  -4 -10    1.71    0.63
  -6  -4 -10    1.03    0.57
  -6  -4 -10   -0.73    0.70
  -6   4 -10    0.32    0.72
  -6   4 -10    0.14    0.69
  12  -5 -10   -0.66    0.68
  12   5 -10   -0.31    0.58
 -12   5  10    0.33    0.58
  12   5 -10    0.60    0.83
  12   5 -10    1.34    1.01
  11  -5 -10    6.10    1.40
  11   5 -10    5.36    1.15
  11   5 -10    5.67    1.22
 -11   5  10    8.21    1.52
  10  -5 -10    3.10    0.92
  10  -5 -10    1.16    1.07
  10   5 -10    2.99    0.88
  10   5 -10    2.41    0.79
 -10   5  10    2.90    0.87
  10   5 -10    5.05    1.78
   9  -5 -10    1.03    0.72
   9  -5 -10    0.72    0.57
   9   5 -10   -0.17    0.43
  -9   5  10    0.58    0.47
   9   5 -10    0.19    0.45
   9   5 -10    0.28    0.46
   8  -5 -10    9.84    1.78
   8  -5 -10    9.05    1.54
   8  -5 -10    9.37    1.44
   8  -5 -10    9.41    1.68
   8   5 -10    8.36    1.26
   8   5 -10   11.88    2.06
  -8   5  10    9.10    1.47
   8   5 -10   11.17    1.58
  -8   5  10    7.64    1.18
   7  -5 -10    0.15    0.43
   7  -5 -10   -0.55    0.38
   7  -5 -10    0.07    0.48
   7  -5 -10    0.14    0.45
   7   5 -10   -0.34    0.36
  -7   5  10    0.12    0.47
  -7   5  10   -0.36    0.40
   7   5 -10    0.13    0.41
   7   5 -10    0.91    0.58
   6  -5 -10    2.33    0.81
   6  -5 -10    2.02    0.77
  -6   5  10    2.30    0.79
   6   5 -10    2.91    0.76
   6   5 -10    1.45    0.59
  -6   5  10    2.08    0.74
   5  -5 -10    0.48    0.43
   5  -5 -10    0.46    0.49
   5  -5 -10    1.00    0.61
   5   5 -10   -0.01    0.39
   5   5 -10    0.28    0.45
  -5   5  10    1.71    0.66
  -5   5  10    0.79    0.48
   4  -5 -10    6.61    1.15
  -4  -5  10    8.52    1.34
   4  -5 -10    9.67    1.32
   4  -5 -10    4.97    1.09
   4   5 -10    7.75    1.30
  -4   5  10   10.67    1.52
  -4   5  10    8.58    1.24
   4   5 -10    7.39    0.70
   4   5 -10    7.59    1.19
   3  -5 -10   22.09    1.82
   3  -5 -10   24.59    2.15
  -3  -5  10   19.03    1.63
   3  -5 -10   23.75    1.70
  -3   5  10   23.19    1.82
   3   5 -10   24.86    1.76
   3   5 -10   22.23    1.69
  -3   5  10   22.73    1.65
   2  -5 -10   13.79    1.30
   2  -5 -10    9.73    1.07
   2  -5 -10   13.63    1.47
  -2  -5  10   13.48    2.21
  -2   5  10   12.84    1.41
   2   5 -10   12.79    1.44
   2   5 -10   12.65    1.32
   1  -5 -10    0.77    0.41
   1  -5 -10    0.50    0.53
   1  -5 -10    0.66    0.49
  -1  -5  10   -0.63    0.49
   1   5 -10    0.25    0.43
  -1   5  10    0.32    0.46
   0  -5  10    0.55    0.56
   0  -5 -10    0.75    0.38
   0  -5 -10    1.21    0.64
   0  -5 -10    1.36    0.58
   0   5  10    1.42    0.65
   0   5 -10    1.60    0.67
  -1  -5 -10   11.82    1.30
  -1  -5 -10   10.85    1.60
  -1  -5 -10   12.52    1.12
  -1   5 -10    8.00    1.25
   1   5  10    8.88    1.32
  -2  -5 -10   -0.31    0.46
  -2  -5 -10   -0.04    0.37
  -2  -5 -10    0.44    0.54
   2   5  10    0.03    0.62
  -2   5 -10    0.10    0.43
  -3  -5 -10    0.78    0.43
  -3  -5 -10    0.36    0.57
   3   5  10    0.90    0.75
  -3   5 -10    0.22    0.51
  -4  -5 -10    0.81    0.43
  -4  -5 -10    0.40    0.64
  -4   5 -10    1.41    0.76
   4   5  10   -0.56    0.62
  -5  -5 -10    3.45    1.02
  -5  -5 -10    1.91    0.62
  -5   5 -10    1.65    0.70
   5   5  10    0.47    0.90
  -5   5 -10    1.97    0.86
  -6  -5 -10    0.42    0.56
  -6  -5 -10   -0.53    0.77
  -6   5 -10    0.61    0.60
  -6   5 -10    1.00    0.75
  11  -6 -10   -0.36    0.61
 -11   6  10    0.65    0.57
  11   6 -10   -0.56    0.61
  11   6 -10   -0.29    0.55
  11   6 -10   -0.07    1.20
  10  -6 -10    2.02    0.89
  10  -6 -10    0.45    0.69
  10   6 -10    0.48    0.56
  10   6 -10    1.85    0.66
  10   6 -10    1.11    0.62
 -10   6  10    2.09    0.70
   9  -6 -10    1.32    0.90
   9  -6 -10    0.01    0.62
   9  -6 -10   -1.06    0.37
   9   6 -10   -1.14    0.40
  -9   6  10    0.39    0.48
   9   6 -10    1.11    0.51
   9   6 -10   -0.07    0.47
   8  -6 -10    9.62    1.54
   8  -6 -10    7.33    1.32
   8   6 -10    7.23    1.25
  -8   6  10   11.17    1.67
  -8   6  10    7.73    1.25
   8   6 -10    9.06    1.26
   8   6 -10    9.31    1.32
   7  -6 -10   -0.16    0.44
   7  -6 -10   -0.50    0.41
   7  -6 -10    0.02    0.51
   7  -6 -10   -0.85    0.42
   7   6 -10    0.11    0.46
   7   6 -10   -0.53    0.32
  -7   6  10    0.11    0.35
   7   6 -10    0.75    0.49
   6  -6 -10   16.24    1.66
   6  -6 -10   19.62    1.84
  -6   6  10   17.72    1.62
   6   6 -10   16.12    1.50
   6   6 -10   17.73    1.84
  -6   6  10   17.05    1.64
   5  -6 -10    0.32    0.49
   5  -6 -10    0.20    0.33
  -5  -6  10   -0.17    0.33
   5  -6 -10   -0.28    0.35
  -5   6  10    0.26    0.46
  -5   6  10    0.07    0.42
   5   6 -10    0.35    0.43
   5   6 -10   -0.33    0.33
  -4  -6  10   23.23    1.57
   4  -6 -10   23.87    1.69
   4  -6 -10   25.17    1.94
   4  -6 -10   25.50    1.89
  -4   6  10   23.60    1.76
   4   6 -10   23.36    1.18
   4   6 -10   22.74    1.70
  -4   6  10   26.26    1.94
   4   6 -10   21.97    1.75
   3  -6 -10    3.01    0.91
  -3  -6  10    3.27    0.73
   3  -6 -10    3.14    0.83
   3  -6 -10    1.70    0.56
   3   6 -10    2.68    0.71
  -3   6  10    2.51    0.73
   3   6 -10    2.64    0.72
  -3   6  10    3.78    0.99
   2  -6 -10    0.38    0.42
   2  -6 -10    0.05    0.50
   2  -6 -10    0.81    0.54
   2   6 -10   -0.34    0.36
  -2   6  10    0.29    0.43
  -2   6  10    1.38    0.62
   1  -6 -10    1.79    0.70
   1  -6 -10    1.47    0.67
   1  -6 -10    0.33    0.45
   1   6 -10    0.60    0.45
  -1   6  10    1.78    0.75
   0  -6 -10    6.85    1.03
   0  -6 -10    7.70    1.25
   0  -6 -10    5.50    1.08
   0   6  10    8.18    1.34
   0   6 -10    9.37    1.41
  -1  -6 -10    0.66    0.56
  -1  -6 -10   -0.23    0.29
  -1  -6 -10   -0.05    0.46
  -1   6 -10   -0.10    0.43
   1   6  10   -0.20    0.43
  -2  -6 -10    4.35    1.04
  -2  -6 -10    4.11    1.03
  -2  -6 -10    4.77    0.86
  -2   6 -10    4.65    1.05
   2   6  10    5.24    1.05
  -3  -6 -10   -0.42    0.46
  -3  -6 -10    0.03    0.39
   3   6  10    1.27    0.73
  -3   6 -10    0.92    0.54
  -4  -6 -10    1.97    0.61
  -4  -6 -10    2.60    0.98
  -4   6 -10    1.98    0.81
   4   6  10    4.90    1.89
  -5  -6 -10   -0.21    0.41
  -5  -6 -10    0.58    0.75
  -5   6 -10   -0.96    0.51
  -5   6 -10    0.23    0.75
   5   6  10    1.58    0.91
  11  -7 -10    0.67    0.63
  11  -7 -10   -0.59    0.55
  11   7 -10   -0.86    0.67
  11   7 -10    0.62    0.58
 -11   7  10   -0.62    0.46
  11   7 -10   -0.86    0.50
  10  -7 -10    3.18    1.14
  10   7 -10    2.57    0.78
 -10   7  10    2.19    0.90
  10   7 -10    2.37    0.95
  10   7 -10    2.63    0.78
   9  -7 -10   11.16    1.74
   9  -7 -10   11.57    2.10
  -9   7  10   10.75    1.54
   9   7 -10   12.40    1.57
   9   7 -10   12.06    1.52
   9   7 -10   11.46    1.55
   8  -7 -10    8.18    1.73
   8  -7 -10   10.12    1.69
   8   7 -10    9.45    1.38
  -8   7  10    8.41    1.26
   8   7 -10    8.78    1.24
   8   7 -10   10.57    1.42
  -8   7  10   11.07    1.62
   7  -7 -10   11.46    1.76
   7  -7 -10   11.79    1.69
   7   7 -10   12.32    1.33
   7   7 -10   12.62    1.35
  -7   7  10   11.06    1.67
  -7   7  10   13.19    1.41
   6  -7 -10    0.14    0.49
   6  -7 -10    0.46    0.55
   6  -7 -10   -0.26    0.46
   6   7 -10    0.15    0.44
  -6   7  10    0.28    0.45
   6   7 -10    0.64    0.50
  -6   7  10    0.39    0.51
   5  -7 -10   -0.47    0.37
   5  -7 -10    0.24    0.45
  -5   7  10    0.46    0.50
   5   7 -10    0.22    0.45
  -5   7  10   -0.32    0.30
   5   7 -10    0.10    0.41
  -4  -7  10    1.59    0.51
   4  -7 -10    0.79    0.55
   4  -7 -10    1.61    0.63
   4  -7 -10    1.32    0.68
   4   7 -10    2.22    0.68
   4   7 -10    0.50    0.32
   4   7 -10    0.33    0.48
  -4   7  10    1.19    0.57
  -4   7  10    1.54    0.68
   3  -7 -10    0.24    0.36
   3  -7 -10    0.60    0.54
   3  -7 -10    0.22    0.50
  -3  -7  10   -0.27    0.37
   3   7 -10    0.68    0.53
  -3   7  10    0.09    0.36
  -3   7  10   -0.41    0.35
   3   7 -10    0.28    0.38
   2  -7 -10    1.84    0.73
  -2  -7  10    2.82    0.86
   2  -7 -10    5.06    1.12
   2   7 -10    3.41    0.83
  -2   7  10    2.00    0.67
  -2   7  10    2.11    0.65
   1  -7 -10    0.78    0.59
   1  -7 -10    0.46    0.40
   1  -7 -10    0.31    0.48
   1   7 -10    1.04    0.57
  -1   7  10    0.52    0.50
   0  -7 -10    1.76    0.57
   0  -7 -10    0.76    0.59
   0  -7 -10    1.07    0.70
   0   7 -10    0.66    0.47
   0   7  10    2.09    0.75
  -1  -7 -10   13.03    1.17
  -1  -7 -10   11.15    1.78
  -1  -7 -10   11.08    1.58
  -1   7 -10   14.86    1.52
   1   7  10    8.31    1.33
  -2  -7 -10    0.52    0.62
  -2  -7 -10    0.78    0.44
  -2  -7 -10    0.33    0.50
   2   7  10    0.45    0.67
  -2   7 -10    1.28    0.55
  -3  -7 -10    8.54    1.44
  -3  -7 -10    7.43    0.96
  -3   7 -10    9.42    1.56
   3   7  10    5.34    1.20
  -4  -7 -10    0.36    0.40
  -4  -7 -10    1.51    0.78
   4   7  10   -1.51    0.72
  -4   7 -10   -0.91    0.50
  -5  -7 -10    1.40    0.83
  -5   7 -10    0.41    0.60
   5   7  10   -0.15    1.06
  -5   7 -10   -0.80    0.40
  11  -8 -10    1.81    0.90
  11  -8 -10    2.95    1.05
  11   8 -10    1.76    0.97
 -11   8  10    2.28    0.94
  11   8 -10    1.74    0.88
  11   8 -10    5.17    1.13
  10  -8 -10    8.00    1.82
  10  -8 -10    7.23    1.58
 -10   8  10    4.33    1.11
  10   8 -10    4.90    1.05
  10   8 -10    6.43    1.23
  10   8 -10    5.51    1.06
   9  -8 -10    2.71    0.92
   9  -8 -10    2.10    0.86
   9   8 -10    2.91    0.82
  -9   8  10    4.15    1.08
   9   8 -10    3.89    0.96
   9   8 -10    2.36    0.73
   8  -8 -10    4.69    1.23
   8  -8 -10    3.99    1.13
   8   8 -10    5.80    1.04
   8   8 -10    5.11    1.01
  -8   8  10    5.96    1.35
   8   8 -10    4.92    1.03
  -8   8  10    6.64    1.29
   7  -8 -10   -0.01    0.50
   7  -8 -10   -0.30    0.47
   7   8 -10   -0.35    0.36
  -7   8  10   -0.19    0.54
  -7   8  10    0.29    0.46
   7   8 -10    0.38    0.39
   6  -8 -10   53.76    3.17
   6  -8 -10   52.64    3.00
   6  -8 -10   55.91    4.09
   6   8 -10   50.86    2.57
  -6   8  10   49.70    2.84
  -6   8  10   56.47    2.91
   5  -8 -10    9.58    1.58
   5  -8 -10    7.88    1.40
  -5   8  10   11.52    1.65
  -5   8  10   12.63    2.36
   5   8 -10   10.59    1.21
   4  -8 -10    0.18    0.45
   4  -8 -10    1.58    0.73
   4  -8 -10    1.13    0.73
   4   8 -10    1.35    0.35
  -4   8  10    0.16    0.35
  -4   8  10    0.60    0.60
   3  -8 -10    0.56    0.43
   3  -8 -10    0.61    0.56
   3  -8 -10    0.62    0.51
   3   8 -10    0.59    0.59
  -3   8  10   -0.09    0.35
   2  -8 -10    5.87    1.20
   2  -8 -10    4.83    0.84
   2  -8 -10    5.90    1.23
  -2   8  10    7.54    1.22
  -2   8  10    6.01    1.17
   1  -8 -10    2.22    0.61
   1  -8 -10    2.82    1.01
  -1   8  10    1.75    0.60
  -1   8  10    1.74    0.77
   1   8 -10    1.31    0.59
   0  -8 -10    0.66    0.55
   0  -8 -10   -0.10    0.38
   0   8 -10    1.16    0.60
   0   8  10   -0.15    0.46
  -1  -8 -10    0.36    0.41
  -1  -8 -10    1.05    0.67
  -1  -8 -10    0.97    0.65
  -1   8 -10    0.10    0.41
   1   8  10   -0.37    0.51
  -2  -8 -10   -0.21    0.55
  -2  -8 -10    0.44    0.39
  -2  -8 -10    0.56    0.58
   2   8  10    0.23    0.59
  -2   8 -10   -0.06    0.48
  -3  -8 -10    0.68    0.67
  -3  -8 -10    0.87    0.48
  -3  -8 -10   -0.58    0.52
   3   8  10    1.53    0.71
  -3   8 -10    0.40    0.49
  -4  -8 -10    0.87    0.50
  -4  -8 -10   -0.18    0.81
   4   8  10    2.89    1.09
  -4   8 -10    0.28    0.69
  -4   8 -10    2.31    0.89
  -5  -8 -10    9.21    1.54
  -5   8 -10   12.33    1.84
   5   8  10    8.78    1.59
  -5   8 -10   10.23    1.47
  10  -9 -10   -0.94    0.60
  10  -9 -10   -0.40    0.49
  10   9 -10    1.78    0.90
  10   9 -10    0.54    0.58
 -10   9  10   -0.86    0.46
  10   9 -10    1.99    0.74
   9  -9 -10    2.63    0.99
   9  -9 -10    2.38    1.10
   9   9 -10    1.44    0.67
  -9   9  10    3.57    1.04
   9   9 -10    2.95    0.79
   9   9 -10    3.27    0.77
   8  -9 -10    0.44    0.53
   8  -9 -10    0.09    0.62
   8   9 -10    0.57    0.53
  -8   9  10    2.47    0.79
  -8   9  10    0.88    0.57
   8   9 -10    1.79    0.70
   8   9 -10    1.81    0.64
   7  -9 -10    8.87    1.80
   7  -9 -10    8.61    1.46
  -7   9  10    7.99    1.46
   7   9 -10    6.04    1.01
   7   9 -10    7.43    1.19
  -7   9  10    6.50    1.25
   6  -9 -10    1.46    0.73
   6   9 -10    1.89    0.63
  -6   9  10    0.83    0.55
  -6   9  10    2.69    0.85
   5  -9 -10    3.51    1.02
   5  -9 -10    5.07    1.13
  -5   9  10    5.16    1.12
  -5   9  10    4.70    1.03
   5   9 -10    3.63    0.81
   4  -9 -10    0.46    0.62
   4  -9 -10    1.89    0.79
  -4   9  10    0.76    0.52
   4   9 -10    0.63    0.52
   4   9 -10    0.27    0.30
  -4   9  10    0.58    0.52
   3  -9 -10    4.75    0.86
   3  -9 -10    4.74    1.21
  -3   9  10    4.26    0.98
  -3   9  10    3.18    0.80
   3   9 -10    3.79    0.82
   2  -9 -10    4.70    1.07
   2  -9 -10    4.41    0.83
   2  -9 -10    6.34    1.35
   2   9 -10    4.74    0.90
  -2   9  10    4.24    0.91
  -2   9  10    3.45    0.94
   1  -9 -10    1.62    0.79
   1  -9 -10    1.27    0.52
   1  -9 -10    1.76    0.73
   1   9 -10    0.46    0.47
  -1   9  10    3.09    0.90
  -1   9  10    0.99    0.49
   0  -9 -10    3.88    0.96
   0  -9 -10    4.69    1.10
   0  -9 -10    4.14    0.80
   0   9  10    5.23    1.11
  -1  -9 -10    3.08    0.95
  -1  -9 -10    0.61    0.50
  -1  -9 -10    1.02    0.60
   1   9  10    0.25    0.63
  -1   9 -10    2.35    0.71
  -2  -9 -10    0.37    0.41
  -2  -9 -10    0.07    0.54
  -2  -9 -10    0.68    0.61
  -2   9 -10   -0.45    0.35
   2   9  10    0.41    0.58
  -3  -9 -10    0.02    0.56
  -3  -9 -10   -0.41    0.76
  -3  -9 -10   -0.06    0.36
   3   9  10   -0.01    0.59
  -4  -9 -10    3.02    0.62
  -4  -9 -10    3.59    1.77
   4   9  10    1.78    1.02
  -4   9 -10    3.45    1.00
  -4   9 -10    2.74    0.93
  10 -10 -10   -0.03    0.55
  10 -10 -10    0.54    0.75
  10  10 -10    0.96    0.70
  10  10 -10    0.32    0.61
  10  10 -10    1.01    0.72
 -10  10  10   -0.24    0.64
   9 -10 -10    0.29    0.63
   9 -10 -10    0.70    0.73
   9  10 -10    0.95    0.57
   9  10 -10    0.14    0.45
   9  10 -10   -0.11    0.49
  -9  10  10    0.08    0.44
   8 -10 -10    0.69    0.82
   8 -10 -10    1.54    0.81
  -8  10  10    0.95    0.57
   8  10 -10   -0.13    0.50
   8  10 -10    2.46    0.71
  -8  10  10   -0.69    0.66
   7 -10 -10   -0.62    0.40
   7 -10 -10    0.14    0.48
  -7  10  10    0.17    0.51
   7  10 -10    0.25    0.43
  -7  10  10   -0.52    0.58
   7  10 -10    0.29    0.50
   6 -10 -10    6.42    1.26
   6 -10 -10    6.74    2.19
   6  10 -10    5.92    1.03
  -6  10  10    6.33    1.20
  -6  10  10    5.49    1.17
   5 -10 -10   -0.68    0.48
   5 -10 -10   -0.08    0.55
   5  10 -10   -0.52    0.33
  -5  10  10    0.25    0.43
  -5  10  10   -0.23    0.43
   4 -10 -10    0.87    0.72
  -4  10  10    0.07    0.42
   4  10 -10    0.35    0.42
  -4  10  10    0.50    0.49
   4  10 -10   -0.43    0.35
   3 -10 -10   -0.21    0.44
   3 -10 -10    0.37    0.61
  -3  10  10    1.45    0.68
   3  10 -10    0.87    0.46
  -3  10  10    0.75    0.58
   2 -10 -10    6.20    1.35
   2 -10 -10    7.43    1.34
   2 -10 -10    7.15    1.11
   2  10 -10    5.49    0.97
  -2  10  10    6.30    1.22
  -2  10  10    8.13    1.26
   1 -10 -10    4.07    0.81
   1 -10 -10    3.64    1.08
   1 -10 -10    3.54    0.92
  -1  10  10    5.08    1.01
   1  10 -10    6.03    1.09
  -1  10  10    3.74    0.79
   0 -10 -10   14.84    1.59
   0 -10 -10   16.92    1.35
   0 -10 -10   16.16    1.75
   0  10 -10   15.37    1.48
   0  10  10   20.13    1.76
  -1 -10 -10    2.03    0.90
  -1 -10 -10    1.40    0.94
  -1 -10 -10    2.71    0.69
   1  10  10    1.38    0.72
  -1  10 -10    1.52    0.73
  -2 -10 -10    1.48    0.91
  -2 -10 -10    1.24    0.53
  -2 -10 -10    3.19    0.97
   2  10  10    4.16    1.02
  -2  10 -10    2.66    0.80
  -3 -10 -10   -0.82    0.62
  -3  10 -10    0.40    0.53
  -4 -10 -10    0.31    0.88
  -4  10 -10    0.03    0.55
   4  10  10    2.69    0.87
  -4  10 -10    1.27    0.68
   9 -11 -10    1.01    0.93
   9 -11 -10    0.65    0.68
  -9  11  10    0.57    0.52
   9  11 -10    0.58    0.49
   9  11 -10    0.37    0.61
   9  11 -10    0.75    0.49
   8 -11 -10    4.41    1.21
   8 -11 -10    3.67    1.15
   8  11 -10    2.58    0.72
  -8  11  10    2.89    1.06
   8  11 -10    3.68    0.87
   8  11 -10    1.58    0.70
   7 -11 -10    2.27    0.98
   7 -11 -10    3.42    1.04
   7  11 -10    2.34    0.65
  -7  11  10    2.06    0.84
   7  11 -10    3.43    0.79
  -7  11  10    2.35    0.78
   6 -11 -10    0.45    0.69
   6 -11 -10    0.96    0.69
   6  11 -10    0.75    0.51
  -6  11  10    0.28    0.49
  -6  11  10    0.71    0.63
   5 -11 -10    6.87    1.28
   5 -11 -10   11.22    1.92
   5  11 -10    7.49    1.09
  -5  11  10    7.70    1.35
  -5  11  10    5.96    1.13
   4 -11 -10    1.09    0.73
   4 -11 -10    0.15    0.48
   4  11 -10    1.01    0.50
  -4  11  10    1.27    0.73
  -4  11  10    0.28    0.42
   3 -11 -10   -0.12    0.55
   3 -11 -10    0.68    0.63
  -3  11  10    1.14    0.60
  -3  11  10    0.03    0.58
   3  11 -10    0.78    0.48
   2 -11 -10   10.95    1.54
   2 -11 -10   11.30    2.01
   2 -11 -10    8.29    1.16
   2  11 -10    9.35    1.24
  -2  11  10   13.22    1.77
  -2  11  10   11.33    1.47
   1 -11 -10    0.64    0.54
   1 -11 -10   -0.43    0.36
   1 -11 -10   -0.49    0.54
  -1  11  10    0.38    0.41
  -1  11  10    0.70    0.59
   1  11 -10    0.08    0.40
   0 -11 -10   12.42    1.65
   0 -11 -10   12.41    1.23
   0 -11 -10    9.46    1.69
   0  11 -10   13.12    1.35
   0  11  10    9.10    1.33
  -1 -11 -10    5.69    1.36
  -1 -11 -10    4.25    1.05
  -1 -11 -10    4.17    0.82
   1  11  10    3.69    0.90
  -1  11 -10    4.13    0.97
  -2 -11 -10    1.41    0.56
  -2 -11 -10    1.65    0.92
  -2 -11 -10    0.59    0.74
  -2  11 -10    0.47    0.53
   2  11  10    1.80    0.78
  -3 -11 -10    0.50    0.82
  -3 -11 -10   -0.75    0.39
  -3 -11 -10    1.62    0.88
  -3  11 -10   -0.65    0.53
  -3  11 -10    0.26    0.47
   3  11  10    0.79    0.68
  -4 -11 -10    1.19    0.99
  -4  11 -10    3.57    1.46
   4  11  10    1.18    0.99
  -4  11 -10    3.65    1.06
   9 -12 -10    0.86    0.95
   9 -12 -10    0.54    0.83
  -9  12  10    0.29    0.62
   9  12 -10    1.26    0.57
   9  12 -10    0.99    0.58
   9  12 -10    1.37    0.65
   8 -12 -10    0.49    0.69
   8 -12 -10    0.33    0.71
  -8  12  10    0.69    0.60
   8  12 -10   -0.33    0.48
   8  12 -10    1.07    0.51
   8  12 -10    0.13    0.46
   7 -12 -10    0.35    0.67
   7 -12 -10    1.22    0.74
   7  12 -10    1.21    0.57
  -7  12  10    1.54    0.76
  -7  12  10    0.31    0.54
   7  12 -10    0.57    0.48
   7  12 -10    0.64    0.48
   6 -12 -10    0.94    0.72
   6  12 -10    0.69    0.49
  -6  12  10    1.20    0.68
  -6  12  10    0.50    0.48
   6  12 -10   -0.06    0.47
   5 -12 -10    3.21    1.10
   5 -12 -10    2.70    0.95
   5  12 -10    1.84    0.60
  -5  12  10    3.93    0.90
  -5  12  10    2.21    0.84
   4 -12 -10    0.31    0.63
   4 -12 -10    0.09    0.59
  -4  12  10    0.88    0.50
  -4  12  10   -0.96    0.44
   4  12 -10   -0.44    0.34
   3 -12 -10    3.31    1.11
   3 -12 -10    5.28    1.24
  -3  12  10    4.63    0.99
   3  12 -10    3.43    0.75
  -3  12  10    6.01    1.16
   2 -12 -10   -0.24    0.54
   2 -12 -10   -0.33    0.58
  -2  12  10    1.46    0.63
   2  12 -10    0.08    0.43
  -2  12  10   -1.27    0.39
   1 -12 -10    0.82    0.47
   1 -12 -10    1.01    0.74
  -1  12  10    0.28    0.59
  -1  12  10    1.13    0.52
   1  12 -10    0.64    0.51
   0 -12 -10    0.63    0.47
   0 -12 -10    0.16    0.74
   0  12  10   -0.80    0.33
   0  12  10   -0.24    0.63
   0  12 -10    0.42    0.37
  -1 -12 -10    1.88    0.65
  -1 -12 -10    1.05    0.86
  -1 -12 -10    1.65    0.78
   1  12  10    1.55    0.78
  -1  12 -10    1.83    0.71
  -2 -12 -10    6.71    1.47
  -2 -12 -10    7.80    1.00
  -2 -12 -10    9.03    1.56
   2  12  10    9.40    1.53
  -2  12 -10   10.96    1.56
  -2  12 -10   11.14    1.85
  -3 -12 -10    0.14    0.72
  -3 -12 -10   -0.57    0.73
  -3 -12 -10    0.95    0.51
  -3  12 -10   -0.46    0.67
  -3  12 -10    1.30    0.83
   3  12  10    0.92    0.82
   8 -13 -10    2.09    0.97
   8 -13 -10    1.65    0.92
   8  13 -10    3.46    0.75
   8  13 -10    0.10    0.63
  -8  13  10    3.88    1.74
   8  13 -10    1.36    0.52
   7 -13 -10    4.56    1.37
   7 -13 -10    4.72    1.26
   7  13 -10    0.82    0.53
  -7  13  10    2.83    0.90
  -7  13  10    4.23    1.23
   7  13 -10    1.83    0.60
   6 -13 -10   -1.31    0.42
   6  13 -10    0.18    0.48
  -6  13  10   -0.06    0.48
   6  13 -10    0.81    0.42
  -6  13  10    2.00    0.74
   5 -13 -10   -0.61    0.50
   5 -13 -10   -0.61    0.55
  -5  13  10   -0.98    0.50
   5  13 -10    0.09    0.39
  -5  13  10   -0.78    0.43
   4 -13 -10    0.82    0.81
   4 -13 -10    0.45    0.64
  -4  13  10    0.06    0.41
   4  13 -10    0.05    0.37
  -4  13  10    0.60    0.58
   3 -13 -10    7.27    1.32
   3 -13 -10    7.58    1.53
  -3  13  10    7.91    1.23
  -3  13  10    8.94    1.43
   3  13 -10    8.23    1.14
   2 -13 -10    1.88    0.91
   2 -13 -10    2.84    0.90
  -2  13  10    1.80    0.61
  -2  13  10    2.59    0.80
   2  13 -10    1.34    0.56
   1 -13 -10   14.48    1.58
   1 -13 -10   10.56    1.84
  -1  13  10   13.14    1.90
  -1  13  10   12.45    1.30
   1  13 -10   10.48    1.39
   0 -13 -10    0.65    0.56
   0 -13 -10    1.12    0.91
   0 -13 -10    0.86    0.64
   0  13 -10    0.49    0.46
   0  13  10    0.80    0.53
   0  13  10   -0.82    1.04
  -1 -13 -10    0.58    0.73
  -1 -13 -10    0.12    0.60
   1  13  10    0.69    0.62
  -1  13 -10    1.63    0.65
  -2 -13 -10   -0.19    0.66
  -2 -13 -10    0.85    0.61
  -2 -13 -10   -0.21    0.62
  -2  13 -10    1.30    0.73
   2  13  10    1.67    0.79
  -2  13 -10    1.59    0.85
   7 -14 -10    1.94    0.99
   7 -14 -10    3.09    1.43
  -7  14  10    1.59    0.94
   7  14 -10    3.75    0.70
   7  14 -10    1.84    0.62
   7  14 -10    2.93    0.70
  -7  14  10    3.26    0.99
   6 -14 -10    1.44    0.89
   6 -14 -10    2.20    0.98
   6  14 -10    0.96    0.51
   6  14 -10    1.85    0.57
  -6  14  10    1.75    0.69
  -6  14  10    0.57    0.65
   6  14 -10    1.06    0.45
   5 -14 -10    0.50    0.78
   5 -14 -10    1.73    0.86
  -5  14  10    0.87    0.60
   5  14 -10    1.65    0.50
  -5  14  10    1.99    0.88
   4 -14 -10   -0.21    0.54
   4 -14 -10   -0.45    0.58
  -4  14  10    0.24    0.46
  -4  14  10   -0.72    0.48
   3 -14 -10    4.93    1.39
   3 -14 -10    2.57    0.91
   3  14 -10    3.40    0.73
  -3  14  10    3.63    0.90
  -3  14  10    2.57    0.90
   2 -14 -10    6.42    1.17
   2 -14 -10    8.39    1.80
  -2  14  10    8.51    1.30
   2  14 -10    7.36    1.09
   1 -14 -10    1.60    0.78
   1 -14 -10    0.98    0.80
  -1  14  10    1.53    0.67
   1  14 -10    1.75    0.65
  -1  14  10    0.32    0.68
   0 -14 -10    1.78    0.81
   0 -14 -10    0.93    0.62
   0 -14 -10    1.23    0.77
   0  14  10    1.32    0.62
   0  14 -10    1.92    0.69
   0  14  10    2.93    0.93
  -1 -14 -10    0.66    0.66
  -1 -14 -10    0.35    0.68
  -1 -14 -10    0.17    0.70
  -1  14 -10   -0.29    0.46
   6 -15 -10   -0.88    0.70
   6 -15 -10   -0.51    0.64
   6  15 -10    0.86    0.42
   6  15 -10   -0.46    0.40
  -6  15  10   -1.08    0.66
  -6  15  10    1.08    0.59
   5 -15 -10    0.46    0.73
   5  15 -10    0.31    0.36
   5  15 -10    1.04    0.44
  -5  15  10   -0.16    0.46
  -5  15  10   -0.74    0.57
   4 -15 -10    3.05    1.01
   4 -15 -10    1.24    0.90
   4  15 -10    2.67    0.61
  -4  15  10    1.19    0.77
  -4  15  10    3.98    1.00
   3 -15 -10    0.35    0.62
   3 -15 -10   -1.03    0.54
   3  15 -10   -0.03    0.37
  -3  15  10    0.49    0.61
  -3  15  10    0.92    0.55
   2 -15 -10    1.28    0.60
   2 -15 -10   -0.56    0.44
  -2  15  10    1.26    0.76
   2  15 -10    0.26    0.43
  -2  15  10    0.83    0.64
   1 -15 -10    0.14    0.82
   1 -15 -10    2.12    1.17
  -1  15  10    2.66    1.04
   1  15 -10    0.54    0.53
  -1  15  10    0.74    0.59
   0 -15 -10    1.37    0.74
   0 -15 -10    2.59    1.15
   0  15 -10    3.66    0.91
   0  15  10    3.60    1.19
   0  15  10    2.47    0.95
   0  15 -10    1.75    0.88
 -12   0  11   -0.73    0.47
  12   0 -11   -0.92    0.59
  12   0 -11   -0.72    0.71
  11   0 -11   -1.44    0.68
  11   0 -11   -0.15    0.54
  11   0 -11   -1.47    0.63
 -11   0  11    1.03    0.61
  10   0 -11    0.36    0.50
  10   0 -11   -0.90    0.46
 -10   0  11   -0.51    0.35
  10   0 -11   -1.23    0.95
   9   0 -11    0.42    0.60
   9   0 -11   -0.35    0.40
   9   0 -11   -0.10    0.45
   8   0 -11    0.59    0.53
   7   0 -11   -0.40    0.34
   6   0 -11   -0.72    0.26
  -6   0  11   -0.49    0.39
   6   0 -11   -0.66    0.30
  -5   0  11   -0.37    0.35
   5   0 -11   -0.29    0.37
   5   0 -11   -0.46    0.26
  -4   0  11    0.41    0.45
   4   0 -11    0.10    0.44
   4   0 -11   -0.55    0.25
   4   0 -11    0.25    0.69
   3   0 -11    0.35    0.39
   3   0 -11    0.43    0.53
  -3   0  11   -0.18    0.44
   3   0 -11   -0.31    0.26
   2   0 -11    0.15    0.43
   2   0 -11    0.63    0.40
  -2   0  11    0.04    0.42
   2   0 -11   -0.14    0.23
  -1   0  11   -0.20    0.43
   1   0 -11    0.22    0.27
   1   0 -11   -0.80    0.32
   1   0 -11    0.20    0.36
   0   0 -11    0.17    0.41
   0   0  11    0.57    0.42
   0   0 -11    0.61    0.54
   1   0  11   -0.04    0.48
  -1   0 -11   -0.24    0.37
  -2   0 -11    0.05    0.48
  -2   0 -11    0.67    0.54
  -3   0 -11   -0.25    0.46
  -3   0 -11   -0.20    0.52
   3   0  11    1.40    0.55
  -4   0 -11   -0.36    0.49
  -5   0 -11    1.66    0.86
  12  -1 -11    0.72    0.71
  12  -1 -11    0.95    0.87
 -12   1  11   -0.51    0.50
  12   1 -11    0.82    0.79
  12   1 -11    2.16    0.89
  11  -1 -11    3.90    1.11
  11  -1 -11    5.00    1.26
  11   1 -11    2.47    1.03
  11   1 -11    2.73    0.95
  11   1 -11    4.89    1.15
 -11   1  11    1.75    0.75
  10  -1 -11    2.07    0.79
  10  -1 -11    0.99    0.75
  10  -1 -11    0.90    0.72
  10   1 -11    1.14    0.61
  10   1 -11    1.65    0.70
 -10   1  11    1.79    0.65
  10   1 -11    0.25    0.54
   9  -1 -11    0.05    0.45
   9  -1 -11    0.18    0.51
   9  -1 -11   -0.04    0.50
  -9   1  11    0.83    0.42
   9   1 -11    1.34    0.59
   9   1 -11    0.03    0.38
   9   1 -11    0.56    0.57
   8  -1 -11    1.12    0.71
  -8   1  11   -0.03    0.41
   8   1 -11    0.58    0.57
   8   1 -11    0.21    0.52
   7  -1 -11   -0.13    0.38
   7   1 -11    0.71    0.55
  -7   1  11    0.75    0.45
   6  -1 -11    9.93    1.44
  -6  -1  11    8.00    1.30
   6  -1 -11    8.25    1.41
  -6   1  11   10.29    1.53
   6   1 -11    9.76    1.44
   5  -1 -11   -0.37    0.39
   5  -1 -11    0.12    0.37
  -5  -1  11   -0.20    0.34
   5   1 -11    0.23    0.40
   5   1 -11   -0.42    0.31
  -5   1  11   -0.18    0.34
   4  -1 -11    2.33    0.65
  -4  -1  11    1.79    0.64
   4  -1 -11    1.38    0.49
   4  -1 -11    2.42    0.81
   4   1 -11    1.45    0.62
  -4   1  11    1.24    0.56
   4   1 -11    0.89    0.43
   3  -1 -11    2.18    0.79
   3  -1 -11    2.42    0.61
  -3  -1  11    1.75    0.72
   3  -1 -11    3.42    0.87
   3   1 -11    2.84    0.55
   3   1 -11    1.98    0.68
  -3   1  11    0.99    0.71
   3   1 -11    3.57    0.96
   2  -1 -11   -0.43    0.27
   2  -1 -11    0.10    0.45
  -2  -1  11    0.62    0.47
   2  -1 -11    0.22    0.38
   2   1 -11   -0.34    0.21
  -2   1  11    0.06    0.56
   2   1 -11   -0.29    0.39
   2   1 -11   -0.42    0.31
   1  -1 -11    3.69    0.98
   1  -1 -11    4.41    0.76
   1  -1 -11    4.08    0.90
  -1  -1  11    2.48    0.84
  -1   1  11    6.05    1.21
   1   1 -11    3.95    1.03
   1   1 -11    2.65    0.74
   0  -1 -11    1.87    0.61
   0  -1 -11    1.71    0.50
   0  -1 -11    1.52    0.70
   0  -1  11    1.47    0.62
   0   1  11    1.65    0.76
   0   1 -11    0.58    0.53
   0   1 -11    1.20    0.63
  -1  -1 -11    2.60    0.80
  -1  -1 -11    2.50    0.72
  -1   1 -11    2.10    0.82
   1   1  11    3.19    0.98
  -1   1 -11    3.01    0.84
  -2  -1 -11    0.43    0.61
  -2  -1 -11    0.32    0.52
  -2   1 -11    0.48    0.61
  -2   1 -11    0.04    0.47
   2   1  11    0.34    0.97
  -3  -1 -11    1.18    0.78
  -3  -1 -11    0.89    0.51
  -4  -1 -11    0.62    0.67
  -4  -1 -11    0.59    0.61
  -4   1 -11   -0.30    0.54
  -5  -1 -11    2.01    0.99
  -5   1 -11    0.92    0.91
  12  -2 -11   -1.13    0.63
  12  -2 -11    2.00    1.10
  12   2 -11    0.27    1.23
  12   2 -11    0.44    0.84
 -12   2  11    0.16    0.59
  12   2 -11   -0.94    0.62
  11  -2 -11    0.28    0.80
  11  -2 -11    0.27    0.58
  11   2 -11   -0.14    0.74
 -11   2  11    0.19    0.48
  11   2 -11   -1.01    0.55
  11   2 -11    1.39    0.75
  10  -2 -11    3.52    1.02
  10  -2 -11    0.98    0.82
  10  -2 -11    3.28    1.02
  10   2 -11    1.54    0.76
  10   2 -11    1.61    0.76
 -10   2  11    2.39    0.83
   9  -2 -11    0.68    0.46
   9  -2 -11    0.32    0.56
   9  -2 -11   -0.85    0.61
   9   2 -11    0.12    0.89
   9   2 -11   -0.83    0.50
   9   2 -11    0.93    0.52
  -9   2  11    0.14    0.44
   8  -2 -11    1.39    0.59
   8  -2 -11    1.20    0.63
  -8   2  11    1.31    0.53
   8   2 -11    2.79    0.92
   8   2 -11    1.19    0.61
   7  -2 -11    1.14    0.66
   7  -2 -11    0.27    0.51
  -7   2  11    1.45    0.77
   7   2 -11    0.69    0.78
  -7   2  11    0.59    0.52
   6  -2 -11    6.64    1.21
   6  -2 -11    8.78    1.33
  -6   2  11    6.52    1.15
   6   2 -11    8.26    1.35
  -6   2  11    7.89    1.31
   5  -2 -11   -0.12    0.45
   5  -2 -11    0.25    0.41
  -5  -2  11    0.25    0.42
   5   2 -11    0.11    0.41
   5   2 -11    0.57    0.37
  -5   2  11   -0.26    0.42
   4  -2 -11    4.80    0.91
   4  -2 -11    4.69    1.10
   4  -2 -11    2.43    0.62
  -4  -2  11    4.75    0.97
   4   2 -11    4.36    0.74
   4   2 -11    2.73    0.84
  -3  -2  11    2.13    0.67
   3  -2 -11    1.53    0.59
   3  -2 -11    1.11    0.46
   3  -2 -11    2.70    0.80
   3   2 -11    1.43    0.60
   3   2 -11    2.27    0.45
   3   2 -11    2.88    0.70
  -3   2  11    1.38    0.62
   2  -2 -11   29.25    1.61
  -2  -2  11   32.90    2.10
   2  -2 -11   33.01    2.23
   2  -2 -11   32.11    2.02
   2   2 -11   27.74    2.04
  -2   2  11   26.71    2.05
   2   2 -11   29.38    1.99
   1  -2 -11   10.03    1.56
   1  -2 -11    6.82    1.65
   1  -2 -11    7.35    1.15
  -1  -2  11    7.84    1.24
   1   2 -11    5.55    0.95
   1   2 -11    9.75    1.45
  -1   2  11    6.50    1.69
   0  -2 -11   10.18    1.45
   0  -2 -11   11.96    1.24
   0  -2  11   13.79    2.12
   0   2  11   13.45    1.51
   0   2 -11    8.56    1.38
   0   2 -11    9.25    1.27
  -1  -2 -11    1.77    0.60
  -1  -2 -11    1.62    0.67
  -1   2 -11    1.40    0.65
  -1   2 -11    1.80    0.79
   1   2  11    1.43    0.71
  -2  -2 -11   -0.44    0.38
  -2  -2 -11   -0.22    0.48
   2   2  11   -0.56    0.51
  -2   2 -11   -0.88    0.63
  -3  -2 -11    5.37    1.01
  -3  -2 -11    7.09    1.39
  -3   2 -11    6.11    1.32
  -4  -2 -11    1.57    0.71
  -4  -2 -11    1.91    0.76
  -4   2 -11    1.78    0.86
  -5  -2 -11    1.75    0.74
  -5  -2 -11    0.20    0.70
  -5   2 -11    0.14    0.68
  11  -3 -11    0.16    0.52
  11  -3 -11    0.10    0.74
  11   3 -11    1.65    0.82
  11   3 -11   -0.51    0.58
  11   3 -11    0.38    0.59
 -11   3  11   -0.56    0.39
  10  -3 -11    5.46    1.29
  10  -3 -11    5.24    1.28
  10   3 -11    6.32    1.17
  10   3 -11    5.54    1.25
 -10   3  11    5.32    1.24
  10   3 -11    5.89    1.26
   9  -3 -11   29.42    2.24
   9  -3 -11   28.85    2.31
   9  -3 -11   27.98    2.30
   9   3 -11   28.52    2.12
   9   3 -11   28.62    2.14
  -9   3  11   28.69    2.20
   9   3 -11   27.24    2.17
   8  -3 -11   15.36    1.60
   8  -3 -11   13.61    1.98
   8  -3 -11   17.98    1.80
   8  -3 -11   16.80    1.74
   8   3 -11   14.08    1.98
   8   3 -11   11.25    1.58
  -8   3  11   17.23    1.69
   7  -3 -11    4.11    1.03
   7  -3 -11    2.36    0.89
   7  -3 -11    1.56    0.73
  -7   3  11    2.79    0.77
   7   3 -11    3.80    0.96
  -7   3  11    3.52    0.95
   6  -3 -11    2.91    0.85
   6  -3 -11    3.37    0.94
   6   3 -11    4.61    1.05
  -6   3  11    2.88    0.87
   5  -3 -11   -0.01    0.33
   5  -3 -11    0.58    0.54
   5  -3 -11    0.35    0.48
   5   3 -11   -0.02    0.43
  -5   3  11   -0.05    0.51
   5   3 -11   -0.33    0.44
  -5   3  11   -0.08    0.35
   4  -3 -11    6.87    1.10
   4  -3 -11    5.06    0.99
  -4  -3  11    4.52    0.90
   4  -3 -11    2.84    0.95
   4   3 -11    5.88    1.14
   4   3 -11    4.04    0.64
  -4   3  11    5.25    1.10
   3  -3 -11   12.40    1.51
   3  -3 -11    8.94    1.20
   3  -3 -11    9.41    1.53
  -3  -3  11    8.28    1.32
   3   3 -11    8.41    1.33
  -3   3  11   11.76    1.34
   2  -3 -11   25.17    1.97
  -2  -3  11   23.82    1.78
   2  -3 -11   25.56    1.65
   2  -3 -11   21.88    1.61
   2   3 -11   20.84    1.72
   2   3 -11   23.06    1.85
  -2   3  11   25.42    1.97
   1  -3 -11   69.86    2.74
   1  -3 -11   75.06    3.48
   1  -3 -11   68.29    2.98
  -1  -3  11   71.72    3.75
   1   3 -11   71.89    3.34
   1   3 -11   64.20    3.11
  -1   3  11   72.32    3.47
   0  -3 -11    9.63    1.53
   0  -3 -11    9.65    1.06
   0  -3 -11   10.86    1.20
   0   3  11   14.89    2.31
   0   3 -11   10.79    1.63
  -1  -3 -11    1.67    0.55
  -1  -3 -11    2.74    0.92
  -1  -3 -11    1.07    0.71
   1   3  11    1.42    0.79
  -2  -3 -11    0.44    0.54
  -2   3 -11    0.76    0.60
   2   3  11    1.37    0.74
  -3  -3 -11   10.19    1.15
  -3  -3 -11   10.14    1.65
  -3   3 -11   11.40    1.77
  -4  -3 -11    2.49    1.12
  -4  -3 -11    1.78    0.64
  -4   3 -11    1.90    0.84
  -5   3 -11    0.73    0.79
  11  -4 -11    0.74    0.70
  11   4 -11    0.42    0.64
 -11   4  11   -0.51    0.43
  11   4 -11    0.57    0.68
  10  -4 -11    0.95    0.74
  10  -4 -11   -0.47    0.48
 -10   4  11    1.60    0.72
  10   4 -11    0.54    0.69
  10   4 -11    0.52    0.62
  10   4 -11    1.34    0.79
   9  -4 -11    6.48    1.28
   9  -4 -11    4.33    1.06
   9   4 -11    7.74    1.37
  -9   4  11    4.96    1.12
   9   4 -11    4.82    1.09
   9   4 -11    5.86    1.13
   8  -4 -11    4.17    1.02
   8  -4 -11    4.05    1.01
   8  -4 -11    2.64    0.93
   8   4 -11    2.82    0.77
  -8   4  11    2.78    0.83
   8   4 -11    4.65    1.06
   7  -4 -11    4.61    1.17
   7  -4 -11    3.13    0.93
   7  -4 -11    3.27    0.96
   7   4 -11    4.10    0.92
  -7   4  11    4.06    1.07
  -7   4  11    3.61    0.96
   6  -4 -11    0.35    0.47
   6  -4 -11    0.33    0.47
   6   4 -11    0.02    0.49
  -6   4  11    0.40    0.57
  -6   4  11    0.02    0.35
   5  -4 -11   13.42    1.41
   5  -4 -11   14.34    1.57
  -5   4  11   12.34    1.37
   5   4 -11   15.07    1.49
  -5   4  11   17.35    2.78
   4  -4 -11    0.04    0.39
   4  -4 -11   -0.46    0.31
   4  -4 -11    0.95    0.64
   4   4 -11   -0.40    0.24
  -4   4  11    0.77    0.51
  -4   4  11   -0.19    0.33
   4   4 -11    0.47    0.51
   3  -4 -11    0.87    0.61
   3  -4 -11    0.01    0.43
   3  -4 -11   -0.07    0.35
  -3   4  11    0.13    0.45
   3   4 -11    0.72    0.53
   2  -4 -11    0.01    0.33
   2  -4 -11   -0.07    0.42
   2  -4 -11    0.43    0.43
  -2   4  11   -0.64    0.35
   2   4 -11   -0.66    0.38
   1  -4 -11    4.55    0.88
   1  -4 -11    5.97    1.04
   1  -4 -11    5.04    1.12
   1   4 -11    3.36    0.89
  -1   4  11    4.86    1.08
   0  -4 -11    1.28    0.66
   0  -4 -11    1.00    0.42
   0  -4 -11    0.06    0.39
   0   4  11    0.00    0.54
   0   4 -11    0.47    0.83
  -1  -4 -11    9.28    1.34
  -1  -4 -11   10.29    1.37
  -1  -4 -11    9.72    1.61
  -1   4 -11    7.58    1.39
  -2  -4 -11   14.05    1.84
  -2  -4 -11   16.47    1.77
   2   4  11   16.18    2.14
  -2   4 -11   20.63    1.92
  -3  -4 -11    0.86    0.66
  -3   4 -11   -0.18    0.59
   3   4  11    0.72    0.81
  -4  -4 -11    0.39    0.98
  -4  -4 -11    1.30    0.79
  -4   4 -11    0.45    0.69
  -5  -4 -11    0.98    0.79
  -5  -4 -11    1.31    0.69
  -5   4 -11    2.03    1.03
  11  -5 -11    0.30    0.71
  11   5 -11    2.35    0.74
  11   5 -11    0.49    0.57
 -11   5  11    0.61    0.55
  11   5 -11    0.63    0.67
  10  -5 -11    1.30    0.93
  10  -5 -11    1.07    0.75
  10   5 -11    0.11    0.63
  10   5 -11    1.17    0.70
 -10   5  11    0.51    0.44
  10   5 -11    0.95    0.69
   9  -5 -11    1.02    0.83
   9  -5 -11    0.33    0.52
  -9   5  11    1.65    0.73
   9   5 -11   -0.13    0.43
   9   5 -11    0.32    1.02
   8  -5 -11   -0.43    0.47
   8  -5 -11    0.53    0.75
   8  -5 -11   -0.33    0.53
  -8   5  11   -0.18    0.40
   8   5 -11    0.03    0.42
   8   5 -11    0.06    0.51
   7  -5 -11    0.90    0.63
   7  -5 -11    1.16    0.62
   7  -5 -11    0.16    0.46
   7   5 -11   -0.10    0.37
  -7   5  11    1.13    0.64
  -7   5  11   -0.21    0.40
   6  -5 -11    9.91    1.54
   6  -5 -11    9.91    1.53
  -6   5  11   12.59    1.39
  -6   5  11   10.74    1.61
   6   5 -11   10.46    1.51
   5  -5 -11    5.00    1.10
  -5   5  11    4.74    1.06
   5   5 -11    3.63    1.36
  -5   5  11    4.18    1.23
   4  -5 -11    0.66    0.44
   4  -5 -11    0.88    0.62
   4  -5 -11    0.04    0.47
   4   5 -11    0.50    0.47
  -4   5  11    0.16    0.37
  -4   5  11    0.57    0.55
   4   5 -11    0.33    0.27
   4   5 -11    0.76    0.32
   3  -5 -11   -0.06    0.35
   3  -5 -11    0.60    0.54
   3  -5 -11   -0.80    0.30
  -3   5  11    0.68    0.60
   3   5 -11    0.21    0.42
   2  -5 -11    1.75    0.62
   2  -5 -11    4.88    0.97
   2  -5 -11    3.10    0.89
  -2   5  11    2.28    0.79
   2   5 -11    3.94    0.94
   1  -5 -11    2.79    0.75
   1  -5 -11    1.87    0.60
   1  -5 -11    2.30    0.81
   1   5 -11    1.25    1.12
  -1   5  11    3.40    0.97
   0  -5 -11    1.46    0.73
   0  -5 -11    2.14    0.74
   0  -5 -11    1.90    0.57
   0   5  11    1.85    0.79
   0   5 -11    2.64    0.86
  -1  -5 -11    1.54    0.76
  -1  -5 -11   -0.61    0.44
  -1  -5 -11    1.35    0.77
  -1   5 -11    0.51    0.55
   1   5  11    0.48    0.62
  -2  -5 -11    0.90    0.71
  -2  -5 -11    1.04    0.50
  -2   5 -11    0.13    0.61
   2   5  11    0.46    0.70
  -3  -5 -11   -0.34    0.45
  -3   5 -11   -0.10    0.44
   3   5  11   -1.62    0.61
  -4  -5 -11    2.42    0.92
  -4   5 -11    1.94    0.87
  -5  -5 -11    0.38    0.82
  -5  -5 -11    2.74    0.87
  -5   5 -11    3.11    0.92
  -5   5 -11    1.14    0.93
  11  -6 -11    0.64    0.78
  11  -6 -11   -0.77    0.44
 -11   6  11    0.26    0.47
  11   6 -11    0.06    0.63
  11   6 -11    0.01    0.69
  10  -6 -11    4.19    1.28
  10  -6 -11    5.78    1.53
  10   6 -11    6.49    1.31
  10   6 -11    6.22    1.20
 -10   6  11    6.91    1.37
  10   6 -11    3.89    0.91
   9  -6 -11    7.56    1.38
   9  -6 -11    6.16    1.45
   9   6 -11    6.05    1.04
  -9   6  11    7.55    1.43
   9   6 -11    7.16    1.20
   9   6 -11    6.72    1.32
   8  -6 -11    1.33    0.77
   8  -6 -11    0.12    0.89
   8  -6 -11    1.78    0.85
   8   6 -11    1.64    0.72
  -8   6  11    1.97    0.70
   8   6 -11    0.74    0.55
   7  -6 -11    3.19    1.03
   7  -6 -11    0.75    0.59
   7  -6 -11    1.84    0.82
  -7   6  11    0.80    0.55
  -7   6  11    1.91    0.70
   7   6 -11    1.08    0.61
   6  -6 -11    7.08    1.31
   6  -6 -11    9.60    1.61
  -6   6  11    6.96    1.31
   6   6 -11    5.65    1.09
  -6   6  11    8.02    1.41
   5  -6 -11    0.62    0.54
   5  -6 -11    0.87    0.61
  -5   6  11    0.88    0.57
  -5   6  11    0.31    0.50
   5   6 -11    0.09    0.42
   4  -6 -11   -0.27    0.41
   4  -6 -11   -0.09    0.49
   4   6 -11    0.24    0.27
   4   6 -11    0.39    0.47
  -4   6  11    0.77    0.44
  -4   6  11   -0.48    0.44
   3  -6 -11    8.55    1.39
   3  -6 -11    6.64    1.08
   3  -6 -11    7.23    1.27
  -3   6  11    6.66    1.09
  -3   6  11    7.98    1.42
   3   6 -11    8.55    1.34
   2  -6 -11    2.98    0.88
   2  -6 -11    1.96    0.82
   2  -6 -11    2.12    0.71
  -2   6  11    0.89    0.65
   2   6 -11    2.98    0.82
   1  -6 -11    3.71    0.77
   1  -6 -11    3.83    0.89
   1  -6 -11    3.29    0.99
  -1   6  11    2.05    0.78
   1   6 -11    3.15    0.88
   0  -6 -11   11.22    1.56
   0  -6 -11    7.79    1.32
   0  -6 -11    6.83    1.02
   0   6  11    6.04    1.34
   0   6 -11    6.54    1.15
  -1  -6 -11    0.21    0.53
  -1  -6 -11    0.07    0.51
   1   6  11    1.75    0.67
  -1   6 -11    0.20    0.48
  -2  -6 -11   13.31    1.83
  -2  -6 -11   17.45    1.71
  -2  -6 -11   16.50    1.37
  -2   6 -11   17.68    1.75
   2   6  11   17.77    3.72
  -3  -6 -11    1.11    0.81
  -3  -6 -11    1.40    0.60
  -3   6 -11    0.94    0.68
   3   6  11    1.93    0.96
  -4  -6 -11   -0.93    0.49
  -4  -6 -11   -0.60    0.51
  -4   6 -11   -0.19    0.50
   4   6  11    2.20    1.32
  11  -7 -11   -0.53    0.68
  11  -7 -11    0.30    0.64
  11   7 -11   -0.29    0.69
  11   7 -11    0.20    0.61
  11   7 -11    0.14    0.66
 -11   7  11   -0.87    0.60
  10  -7 -11   -0.46    0.65
  10   7 -11    0.19    0.51
  10   7 -11   -0.18    0.50
  10   7 -11    0.59    0.50
 -10   7  11    0.60    0.50
   9  -7 -11   -0.07    0.62
   9  -7 -11    0.83    0.61
   9   7 -11    1.21    0.58
  -9   7  11    0.52    0.53
   9   7 -11    1.04    0.65
   8  -7 -11    5.94    1.47
   8  -7 -11    3.46    1.06
   8   7 -11    3.95    0.80
   8   7 -11    1.46    0.75
  -8   7  11    2.66    0.83
   8   7 -11    2.53    0.86
   7  -7 -11    7.58    1.35
   7  -7 -11    6.15    1.84
  -7   7  11    6.36    1.21
  -7   7  11    5.81    1.32
   7   7 -11    8.18    1.26
   6  -7 -11    1.38    0.74
   6  -7 -11    0.37    0.62
   6  -7 -11    1.84    0.91
  -6   7  11    1.51    1.08
   6   7 -11    1.12    0.60
  -6   7  11    1.94    0.76
   5  -7 -11    0.66    0.64
   5  -7 -11    0.10    0.63
  -5   7  11   -0.12    0.43
  -5   7  11    0.26    0.41
   5   7 -11    0.45    0.42
   4  -7 -11    5.19    1.10
   4  -7 -11    5.40    1.18
  -4   7  11    6.36    1.93
   4   7 -11    3.74    0.87
   3  -7 -11   11.65    1.68
   3  -7 -11   12.99    1.68
   3  -7 -11   12.63    1.43
  -3   7  11   10.02    1.45
  -3   7  11   11.44    1.57
   3   7 -11   11.26    1.30
   2  -7 -11    8.95    1.42
   2  -7 -11    8.66    1.29
   2  -7 -11    7.12    1.30
   2   7 -11    6.74    1.12
  -2   7  11    6.43    1.12
   1  -7 -11    0.25    0.36
   1  -7 -11    0.10    0.47
   1  -7 -11    0.43    0.65
   1   7 -11   -0.47    0.35
  -1   7  11   -0.80    0.53
   0  -7 -11   -0.36    0.51
   0  -7 -11   -0.06    0.39
   0  -7 -11   -0.24    0.43
   0   7  11    0.17    0.59
   0   7 -11    0.69    0.43
  -1  -7 -11   -0.01    0.52
  -1  -7 -11    0.19    0.52
  -1   7 -11    0.06    0.56
  -2  -7 -11   -0.88    0.54
  -2  -7 -11    0.76    0.48
  -2  -7 -11   -0.07    0.57
  -2   7 -11    0.77    0.62
   2   7  11   -1.10    0.63
  -3  -7 -11    3.58    1.06
  -3  -7 -11    2.76    0.70
  -3   7 -11    3.56    1.00
   3   7  11    2.12    0.98
  -4  -7 -11    0.05    0.57
  -4  -7 -11    0.62    0.68
   4   7  11   -1.14    0.75
  -4   7 -11    1.31    0.75
  10  -8 -11    3.13    0.89
  10  -8 -11    2.21    0.94
  10   8 -11   -0.46    0.52
 -10   8  11    1.88    0.71
  10   8 -11    0.92    0.72
  10   8 -11    0.68    0.71
   9  -8 -11    0.13    0.62
   9  -8 -11   -0.37    0.54
   9   8 -11    0.18    0.49
   9   8 -11   -0.80    0.51
   9   8 -11    0.06    0.54
  -9   8  11   -0.82    0.36
   8  -8 -11    2.76    1.09
   8  -8 -11    1.74    0.80
   8   8 -11    0.23    0.57
   8   8 -11    1.62    0.59
  -8   8  11    1.86    0.67
   8   8 -11    2.53    0.83
   7  -8 -11    1.47    1.34
   7  -8 -11    0.00    0.51
  -7   8  11    0.64    0.54
   7   8 -11    1.44    0.62
  -7   8  11    0.78    0.60
   6  -8 -11    3.75    1.13
   6  -8 -11    1.71    0.90
   6   8 -11    1.37    0.63
  -6   8  11    2.90    1.23
  -6   8  11    1.46    0.66
   5  -8 -11    0.57    0.53
   5  -8 -11   -0.30    0.48
   5   8 -11    0.27    0.41
  -5   8  11   -0.20    0.39
  -5   8  11    1.52    0.66
   4  -8 -11    0.46    0.63
   4  -8 -11    0.37    0.55
  -4   8  11    0.60    0.51
   4   8 -11   -0.05    0.40
   3  -8 -11    3.27    0.93
   3  -8 -11    4.09    1.09
   3   8 -11    2.60    0.71
  -3   8  11    2.35    0.78
  -3   8  11    1.48    0.63
   2  -8 -11    0.45    0.35
   2  -8 -11    0.37    0.60
   2  -8 -11   -0.28    0.44
  -2   8  11   -0.26    0.27
  -2   8  11    1.02    0.57
   1  -8 -11    0.40    0.57
   1  -8 -11    0.34    0.42
   1  -8 -11    0.90    0.67
   1   8 -11    1.13    0.53
  -1   8  11    0.02    0.53
   0  -8 -11    1.79    0.59
   0  -8 -11    2.31    0.85
   0  -8 -11    1.00    0.62
   0   8 -11    1.20    0.66
   0   8  11    1.67    0.70
  -1  -8 -11   -0.58    0.41
  -1  -8 -11    0.36    0.77
  -1  -8 -11    0.15    0.53
   1   8  11    0.41    0.59
  -1   8 -11    0.25    0.44
  -2  -8 -11    0.74    0.77
  -2  -8 -11   -0.55    0.61
  -2  -8 -11    0.46    0.46
   2   8  11   -0.55    0.52
  -2   8 -11    0.18    0.48
  -3  -8 -11   -0.89    0.62
  -3  -8 -11   -0.99    0.44
  -3   8 -11   -0.09    0.48
  -4  -8 -11    0.80    0.61
  -4  -8 -11   -0.74    0.76
  -4   8 -11    0.73    0.75
   4   8  11   -0.34    0.95
  10  -9 -11    0.34    0.71
  10  -9 -11    0.76    0.76
  10   9 -11   -0.50    0.60
 -10   9  11   -0.53    0.52
  10   9 -11    0.89    0.64
   9  -9 -11    1.20    0.91
   9  -9 -11    0.05    0.60
  -9   9  11    1.72    0.87
   9   9 -11    1.61    0.60
   9   9 -11    1.57    0.72
   8  -9 -11    2.30    1.03
   8  -9 -11    3.06    0.97
   8   9 -11    2.04    1.26
  -8   9  11    3.59    1.55
   8   9 -11    3.63    0.78
  -8   9  11    2.58    0.81
   8   9 -11    3.26    0.89
   7  -9 -11    2.89    0.92
   7  -9 -11    2.66    1.00
   7   9 -11    2.05    0.74
  -7   9  11    4.53    1.06
  -7   9  11    1.82    0.79
   6  -9 -11    1.51    0.82
   6  -9 -11    2.53    1.39
  -6   9  11    2.54    0.84
   6   9 -11    1.66    0.67
  -6   9  11    1.81    0.75
   5  -9 -11    0.56    0.61
  -5   9  11    0.28    0.52
  -5   9  11   -0.07    0.48
   5   9 -11    0.04    0.41
   4  -9 -11    0.26    0.61
   4  -9 -11    1.22    0.77
   4   9 -11    0.79    0.49
  -4   9  11    0.75    0.71
  -4   9  11    0.24    0.45
   3  -9 -11    7.88    1.32
   3  -9 -11    8.15    1.46
   3   9 -11    8.87    1.28
  -3   9  11    8.91    1.49
  -3   9  11    9.10    1.45
   2  -9 -11    0.60    0.59
   2  -9 -11    0.08    0.52
  -2   9  11   -0.03    0.30
   2   9 -11    0.35    0.48
  -2   9  11    0.29    0.53
   1  -9 -11    2.46    0.72
   1  -9 -11    1.93    0.91
   1  -9 -11    3.13    1.20
  -1   9  11    2.79    0.85
   1   9 -11    1.98    0.68
   0  -9 -11    0.09    0.70
   0  -9 -11   -0.45    0.45
   0  -9 -11   -0.90    0.37
   0   9 -11    0.86    0.59
   0   9  11    1.70    0.77
  -1  -9 -11    1.04    0.50
  -1  -9 -11    1.34    0.74
  -1  -9 -11   -0.51    0.61
   1   9  11    1.67    0.83
  -1   9 -11    0.80    0.46
  -2  -9 -11    1.44    0.75
  -2  -9 -11   -0.22    0.49
  -2  -9 -11    0.36    0.68
  -2   9 -11    1.33    0.66
   2   9  11    1.38    0.73
  -3  -9 -11    0.65    0.55
  -3  -9 -11   -0.62    0.76
  -3  -9 -11    1.34    0.79
  -3   9 -11   -0.47    0.37
   3   9  11    0.57    0.97
   9 -10 -11    0.96    0.90
   9 -10 -11    2.19    0.97
   9  10 -11    2.74    0.83
   9  10 -11    2.18    0.79
  -9  10  11    1.80    0.76
   9  10 -11    1.30    0.69
   8 -10 -11    5.18    1.40
   8 -10 -11    6.61    1.47
  -8  10  11    8.40    1.70
   8  10 -11    7.90    1.16
   8  10 -11    6.03    1.06
   8  10 -11    6.98    1.18
  -8  10  11    7.42    1.44
   7 -10 -11    4.32    1.26
   7 -10 -11    6.14    1.47
  -7  10  11    7.28    1.43
   7  10 -11    4.06    0.88
  -7  10  11    6.92    1.27
   7  10 -11    6.54    0.99
   6 -10 -11   20.23    1.96
   6 -10 -11   21.26    2.20
  -6  10  11   22.73    1.95
   6  10 -11   18.73    1.63
  -6  10  11   21.21    2.00
   5 -10 -11    8.55    1.78
   5 -10 -11    6.80    1.33
  -5  10  11    8.96    1.42
   5  10 -11    8.84    1.25
  -5  10  11    8.20    1.36
   4 -10 -11   10.66    1.84
   4 -10 -11    9.07    1.52
  -4  10  11   10.41    1.45
   4  10 -11   11.79    1.27
  -4  10  11   14.31    1.87
   3 -10 -11   -0.93    0.60
   3 -10 -11   -0.36    0.90
  -3  10  11    0.05    0.57
   3  10 -11    0.18    0.38
  -3  10  11    1.35    0.59
   2 -10 -11   14.08    2.66
   2 -10 -11   11.07    1.61
  -2  10  11   13.02    1.82
  -2  10  11   10.21    1.75
   2  10 -11   10.97    1.48
   1 -10 -11    0.11    0.53
   1 -10 -11    0.06    0.45
   1  10 -11    0.33    0.50
  -1  10  11   -0.09    0.46
   0 -10 -11    1.98    0.72
   0 -10 -11    3.89    1.20
   0 -10 -11    2.85    1.16
   0  10  11    2.16    0.88
   0  10 -11    2.82    0.87
  -1 -10 -11    7.64    1.42
  -1 -10 -11    6.41    1.00
   1  10  11    6.30    1.19
  -1  10 -11    6.61    1.25
  -2 -10 -11    4.03    1.18
  -2 -10 -11    5.34    1.40
  -2 -10 -11    4.60    0.88
   2  10  11    4.41    1.13
  -2  10 -11    2.93    0.86
  -3 -10 -11   -0.79    0.80
  -3 -10 -11    0.03    0.70
  -3 -10 -11    1.19    0.60
   3  10  11    0.22    0.77
   9 -11 -11   -1.11    0.62
   9 -11 -11    0.10    0.61
   9  11 -11    0.96    0.57
   9  11 -11    0.21    0.67
  -9  11  11    0.57    0.56
   9  11 -11   -0.18    0.49
   8 -11 -11    5.51    1.29
   8 -11 -11    3.87    1.19
   8  11 -11    5.03    1.01
   8  11 -11    6.16    1.06
   8  11 -11    4.81    1.04
  -8  11  11    5.82    1.11
  -8  11  11    4.49    1.41
   7 -11 -11    8.40    1.51
   7 -11 -11    7.54    1.70
  -7  11  11    5.22    1.15
   7  11 -11    7.61    1.14
   7  11 -11    8.37    1.30
  -7  11  11    6.33    1.30
   6 -11 -11    4.70    1.24
   6 -11 -11    2.90    1.12
  -6  11  11    3.36    1.01
   6  11 -11    2.52    0.77
  -6  11  11    2.71    0.90
   5 -11 -11    3.35    1.10
   5 -11 -11    2.93    1.01
  -5  11  11    3.98    1.04
   5  11 -11    3.66    0.86
  -5  11  11    3.15    0.94
   4 -11 -11    0.81    0.78
  -4  11  11    1.15    0.64
   4  11 -11   -0.07    0.41
  -4  11  11   -0.80    0.35
   3 -11 -11    4.05    1.22
   3 -11 -11    1.64    0.92
   3  11 -11    1.40    0.66
  -3  11  11    2.01    0.69
  -3  11  11    0.97    0.62
   2 -11 -11   13.36    2.20
   2 -11 -11   11.40    1.70
   2  11 -11    9.39    1.32
  -2  11  11   10.70    1.62
  -2  11  11    7.46    1.21
   1 -11 -11    6.88    1.31
   1 -11 -11    7.42    1.52
  -1  11  11    6.45    1.11
   1  11 -11    7.07    1.14
  -1  11  11    7.45    1.33
   0 -11 -11    0.13    0.50
   0 -11 -11   -0.14    0.59
   0 -11 -11    0.06    0.56
   0  11  11   -0.58    0.59
   0  11 -11    0.80    0.52
  -1 -11 -11    3.47    1.11
  -1 -11 -11    4.44    1.14
  -1 -11 -11    4.06    0.82
  -1  11 -11    3.26    0.87
   1  11  11    4.33    1.05
  -2 -11 -11    4.49    0.93
  -2 -11 -11    4.32    1.27
  -2 -11 -11    3.53    1.17
  -2  11 -11    2.94    0.84
   2  11  11    4.81    1.09
   8 -12 -11   -0.08    0.77
   8 -12 -11    1.55    0.91
  -8  12  11    0.74    0.83
   8  12 -11    2.71    0.71
   8  12 -11    0.36    0.58
   7 -12 -11    6.90    1.67
   7 -12 -11    6.20    1.38
   7  12 -11    2.71    0.77
  -7  12  11    4.22    1.05
   7  12 -11    4.62    0.87
  -7  12  11    5.49    1.17
   6 -12 -11   -0.76    0.55
   6  12 -11    0.87    0.53
  -6  12  11    0.75    0.80
  -6  12  11    0.58    0.57
   5 -12 -11    0.08    0.68
   5 -12 -11   -0.59    0.54
  -5  12  11   -0.12    0.41
  -5  12  11   -0.60    0.61
   5  12 -11   -0.13    0.40
   4 -12 -11    1.86    0.97
   4 -12 -11    1.50    1.13
  -4  12  11    1.64    0.74
   4  12 -11    2.04    0.63
  -4  12  11    1.90    0.72
   3 -12 -11    0.58    0.69
   3 -12 -11    1.69    0.80
  -3  12  11    1.33    0.66
  -3  12  11    0.75    0.63
   3  12 -11    1.06    0.57
   2 -12 -11    0.70    0.78
   2 -12 -11   -0.27    0.64
  -2  12  11    0.02    0.56
  -2  12  11    0.09    0.45
   2  12 -11   -0.39    0.40
   1 -12 -11    2.73    1.00
   1 -12 -11    3.26    1.04
  -1  12  11    3.91    0.99
  -1  12  11    3.88    0.86
   1  12 -11    4.04    0.91
   0 -12 -11   19.89    1.77
   0 -12 -11   20.91    2.22
   0 -12 -11   23.76    2.10
   0  12 -11   24.38    1.93
   0  12  11   24.11    2.15
  -1 -12 -11    4.04    1.20
  -1 -12 -11    2.62    1.08
  -1 -12 -11    1.04    0.68
  -1  12 -11    1.33    0.63
   1  12  11    3.10    1.07
  -2 -12 -11    0.98    0.68
  -2 -12 -11    0.24    0.74
   2  12  11   -1.11    0.67
  -2  12 -11   -0.06    0.62
   7 -13 -11    1.45    0.92
   7 -13 -11    0.72    0.74
   7  13 -11   -0.37    0.56
  -7  13  11    0.07    0.69
   7  13 -11    0.86    0.52
   7  13 -11   -0.64    0.42
  -7  13  11   -0.56    0.56
   6 -13 -11    6.05    1.39
   6 -13 -11    7.01    1.63
   6  13 -11    6.10    0.99
  -6  13  11    6.02    1.26
  -6  13  11    6.25    1.38
   5 -13 -11    0.05    0.69
   5 -13 -11    0.33    0.70
   5  13 -11   -0.37    0.35
  -5  13  11   -0.24    0.58
  -5  13  11    0.05    0.47
   4 -13 -11    1.48    1.05
   4 -13 -11    2.57    0.97
  -4  13  11    3.16    0.87
  -4  13  11    3.92    1.04
   4  13 -11    2.30    0.66
   3 -13 -11   -0.25    0.66
   3 -13 -11    0.65    0.71
  -3  13  11    1.21    0.69
  -3  13  11    0.36    0.59
   3  13 -11   -0.24    0.38
   2 -13 -11    0.06    0.66
   2 -13 -11   -0.72    0.58
  -2  13  11    0.29    0.70
   2  13 -11   -0.46    0.34
  -2  13  11    0.96    0.56
   1 -13 -11    0.55    0.76
   1 -13 -11    0.35    0.64
   1  13 -11    0.79    0.51
  -1  13  11    0.99    0.71
   0 -13 -11    0.60    0.76
   0 -13 -11    1.60    0.90
   0  13  11    1.09    0.83
   0  13 -11   -0.24    0.46
  -1 -13 -11    1.25    0.71
  -1 -13 -11    0.33    0.94
  -1 -13 -11   -0.66    0.49
   1  13  11    0.60    0.69
  -1  13 -11    1.49    0.65
   6 -14 -11    1.14    1.00
   6 -14 -11    1.73    1.07
  -6  14  11    2.32    0.81
  -6  14  11    3.58    1.14
   6  14 -11    1.39    0.58
   6  14 -11    1.54    0.69
   5 -14 -11    3.00    1.05
   5 -14 -11    3.17    1.34
  -5  14  11    3.18    0.95
   5  14 -11    3.07    0.80
  -5  14  11    1.94    0.72
   4 -14 -11   -0.53    0.69
   4 -14 -11   -0.02    0.64
  -4  14  11    1.53    0.87
   4  14 -11    0.84    0.42
  -4  14  11    0.55    0.58
   3 -14 -11    3.84    1.08
   3 -14 -11    6.52    1.68
  -3  14  11    3.17    1.08
   3  14 -11    2.99    0.78
  -3  14  11    4.46    1.01
   2 -14 -11    4.58    1.39
   2 -14 -11    6.94    1.38
  -2  14  11    3.66    0.96
  -2  14  11    3.97    1.06
   2  14 -11    4.29    0.94
   1 -14 -11   -0.50    0.48
   1 -14 -11   -0.32    0.71
   1  14 -11   -0.76    0.39
  -1  14  11    0.41    0.53
  -1  14  11    1.35    0.64
  11   0 -12    0.35    0.76
  11   0 -12   -0.85    1.40
  11   0 -12    1.41    0.94
  10   0 -12    2.50    0.99
  10   0 -12    3.40    1.01
  10   0 -12    1.42    0.89
   9   0 -12    0.45    0.61
   9   0 -12    1.57    1.23
   9   0 -12    0.34    0.59
   8   0 -12    0.12    0.54
   8   0 -12    0.98    0.70
   7   0 -12    6.26    1.30
   7   0 -12    6.62    1.20
   6   0 -12   16.05    1.41
   6   0 -12   16.92    1.91
   5   0 -12   12.95    1.19
   5   0 -12   14.56    1.61
   4   0 -12   27.56    2.17
   4   0 -12   27.65    1.56
   3   0 -12   13.98    1.05
   3   0 -12   13.68    1.60
  -3   0  12   13.31    2.39
   2   0 -12   -0.26    0.32
   2   0 -12   -0.29    0.45
   1   0 -12   11.21    0.81
   1   0 -12   11.61    1.72
   0   0 -12    2.10    0.86
  -1   0 -12    7.35    1.78
  -2   0 -12    2.16    0.87
  -3   0 -12   -0.42    0.55
  -4   0 -12   -0.02    0.75
  11  -1 -12    0.88    0.87
  11  -1 -12   -0.57    0.68
  11   1 -12    0.25    0.82
  11   1 -12    0.09    0.69
  11   1 -12    0.17    0.65
 -11   1  12    0.46    0.57
  10  -1 -12    8.87    1.55
  10  -1 -12    9.70    1.66
  10  -1 -12    8.40    1.60
  10   1 -12    6.46    2.31
 -10   1  12    8.18    1.51
  10   1 -12    6.72    1.31
  10   1 -12    8.46    1.49
   9  -1 -12    5.87    1.21
   9  -1 -12    5.57    1.39
   9  -1 -12    8.18    1.37
   9   1 -12    7.75    1.48
   9   1 -12    7.45    1.58
   9   1 -12    7.30    1.38
   8  -1 -12    0.28    0.67
   8  -1 -12    0.17    0.51
   8   1 -12    0.37    0.61
   8   1 -12    1.06    0.68
   7  -1 -12    0.26    0.59
   7  -1 -12    1.02    0.64
   7   1 -12    0.71    0.72
   6  -1 -12   40.85    2.66
   6  -1 -12   39.59    2.27
   6   1 -12   43.56    2.25
   6   1 -12   40.10    2.69
   5  -1 -12   25.70    1.69
   5  -1 -12   23.85    2.01
   5   1 -12   23.00    1.49
   5   1 -12   24.84    2.04
   4  -1 -12    2.00    0.78
   4  -1 -12    3.07    0.96
   4   1 -12    2.94    0.87
  -4   1  12    1.96    0.71
   4   1 -12    2.24    0.58
   3  -1 -12    2.34    0.80
   3  -1 -12    2.86    0.65
   3   1 -12    1.32    0.73
   3   1 -12    2.58    0.52
  -3   1  12    1.59    0.69
   2  -1 -12    0.70    0.59
   2  -1 -12   -0.11    0.34
   2   1 -12    0.90    0.69
  -2   1  12   -1.13    0.44
   1  -1 -12    2.47    0.62
   1  -1 -12    2.60    0.79
   1   1 -12    0.38    0.58
  -1   1  12    0.15    0.63
   0  -1 -12    6.14    1.28
   0   1 -12    5.30    1.46
  -1   1 -12    3.75    1.03
  -2  -1 -12   13.28    2.63
  -2   1 -12   14.78    2.09
  -3  -1 -12   -0.19    0.56
  -3   1 -12   -0.60    0.48
  -4  -1 -12    7.58    1.53
  -4   1 -12    5.88    1.29
  11  -2 -12   -0.30    0.78
  11  -2 -12   -0.08    0.70
  11   2 -12    2.44    1.47
 -11   2  12    0.13    0.51
  11   2 -12    1.24    0.71
  11   2 -12   -0.30    0.65
  10  -2 -12    2.90    1.07
  10  -2 -12    2.43    0.96
  10   2 -12    1.16    0.74
  10   2 -12    2.68    0.94
  10   2 -12    2.32    0.83
 -10   2  12    2.35    1.05
   9  -2 -12   -0.24    0.49
   9  -2 -12    0.29    0.64
   9  -2 -12    0.21    0.70
  -9   2  12    0.76    0.56
   9   2 -12    0.77    0.67
   9   2 -12    2.37    0.77
   9   2 -12   -0.21    0.55
   8  -2 -12   12.17    1.75
   8  -2 -12   14.65    1.63
   8  -2 -12    9.94    1.54
   8   2 -12   10.76    1.65
  -8   2  12    8.70    1.33
   8   2 -12    8.02    1.31
   7  -2 -12    1.32    0.84
   7  -2 -12    2.11    0.82
   7   2 -12    2.57    0.84
   6  -2 -12    4.72    1.13
   6  -2 -12    5.22    1.12
   6   2 -12    5.83    1.01
   6   2 -12    5.22    1.14
   5  -2 -12    1.02    0.56
   5  -2 -12    1.66    0.64
  -5   2  12   -0.47    0.45
   5   2 -12    0.13    0.34
   5   2 -12    0.35    0.59
   4  -2 -12   22.22    1.96
   4  -2 -12   22.42    1.56
   4   2 -12   19.11    1.85
  -4   2  12   19.75    1.79
   4   2 -12   21.48    1.20
   3  -2 -12    5.91    1.12
   3  -2 -12    7.80    1.18
   3   2 -12    7.43    0.61
  -3   2  12    4.85    1.03
   3   2 -12    7.58    1.39
   2  -2 -12    1.89    0.77
   2  -2 -12    3.71    0.80
  -2   2  12    1.61    0.78
   2   2 -12    2.90    0.94
   1  -2 -12    8.61    1.50
   1  -2 -12    9.96    1.23
  -1   2  12    7.51    1.39
   0  -2 -12    3.55    0.93
   0  -2 -12    3.07    0.78
   0   2 -12    3.59    1.08
   0   2  12    6.66    1.89
  -1  -2 -12    1.61    0.83
  -1   2 -12    2.51    0.83
  -2  -2 -12    1.52    0.71
  -2   2 -12    1.38    0.67
  -3  -2 -12    2.10    0.99
  -3   2 -12    1.30    0.66
  -4  -2 -12    2.70    1.02
  -4   2 -12    3.48    1.16
  11  -3 -12    4.13    1.28
  11   3 -12    4.91    1.30
  11   3 -12    4.15    1.13
  11   3 -12    5.34    1.22
 -11   3  12    2.44    0.85
  10  -3 -12    0.01    0.62
  10  -3 -12    1.20    0.73
  10   3 -12    0.89    0.79
  10   3 -12    1.26    0.64
   9  -3 -12    0.11    0.53
   9  -3 -12    0.12    0.85
   9  -3 -12    0.85    0.74
  -9   3  12    0.89    0.50
   9   3 -12   -0.24    0.52
   9   3 -12    1.07    0.65
   9   3 -12    0.45    0.65
   8  -3 -12   16.56    2.56
   8  -3 -12   16.65    1.82
   8  -3 -12   19.33    1.94
   8   3 -12   16.55    1.76
   8   3 -12   20.45    1.77
   7  -3 -12    1.03    0.65
   7  -3 -12    0.50    0.65
   7   3 -12    1.66    0.71
  -7   3  12    0.41    0.50
   6  -3 -12    1.20    0.69
   6  -3 -12    3.26    0.99
   6   3 -12    2.00    0.78
   5  -3 -12    1.43    0.75
   5  -3 -12    1.62    0.68
   5   3 -12    1.14    0.62
  -5   3  12    0.35    0.55
   5   3 -12    1.14    0.49
   4  -3 -12    5.67    1.13
   4  -3 -12    3.41    0.98
  -4   3  12    5.21    1.09
   4   3 -12    3.81    0.91
   4   3 -12    5.00    0.66
   3  -3 -12    2.54    0.76
   3  -3 -12    3.31    1.04
   3   3 -12    1.36    0.90
   2  -3 -12    7.20    1.34
   2  -3 -12    7.66    1.11
   2   3 -12    9.76    1.55
  -2   3  12    5.44    1.19
   1  -3 -12   20.09    1.89
  -1   3  12   23.64    2.02
   1   3 -12   23.84    2.00
   0  -3 -12    0.06    0.53
   0  -3 -12   -0.06    0.48
   0   3  12    0.04    0.54
   0   3 -12   -0.32    0.43
  -1  -3 -12    1.53    0.77
  -1  -3 -12    0.52    0.61
  -1   3 -12    0.62    0.58
  -2  -3 -12    4.14    1.13
  -2   3 -12    4.20    1.11
  -3  -3 -12    0.48    0.66
  -3   3 -12    1.72    0.95
  -4  -3 -12    1.48    1.00
  -4   3 -12    0.76    0.79
  11  -4 -12    4.61    1.32
  11   4 -12    4.18    2.14
 -11   4  12    2.97    0.87
  11   4 -12    5.11    1.20
  11   4 -12    4.75    1.50
  10  -4 -12    0.99    0.87
  10  -4 -12    2.58    1.02
  10   4 -12    1.29    0.82
  10   4 -12    1.13    0.78
  10   4 -12    0.08    0.70
 -10   4  12    3.11    0.94
   9  -4 -12    0.27    0.66
   9  -4 -12    1.59    0.97
   9  -4 -12    2.72    0.95
  -9   4  12    1.56    0.73
   9   4 -12    1.14    0.68
   9   4 -12    1.40    0.70
   9   4 -12    1.91    0.61
   8  -4 -12    0.93    0.85
   8  -4 -12    0.30    0.66
   8  -4 -12    0.43    0.59
   8   4 -12   -0.03    0.46
  -8   4  12   -0.48    0.36
   8   4 -12   -0.58    0.49
   7  -4 -12   21.68    1.95
   7  -4 -12   27.02    2.22
  -7   4  12   19.76    1.81
   7   4 -12   21.89    1.94
   6  -4 -12   11.34    1.74
   6  -4 -12   11.65    1.65
  -6   4  12   10.97    1.89
   6   4 -12   11.32    1.60
  -6   4  12    8.56    1.27
   5  -4 -12    3.12    0.86
   5  -4 -12    4.98    1.08
   5   4 -12    3.37    0.95
  -5   4  12    4.68    1.08
   5   4 -12    4.55    0.73
   4  -4 -12    1.83    0.84
   4  -4 -12    2.78    0.83
   4   4 -12    0.73    0.60
  -4   4  12    0.55    0.61
   3  -4 -12   -0.17    0.40
   3   4 -12    1.44    0.66
  -3   4  12    0.76    0.58
   2  -4 -12   -0.36    0.46
   2  -4 -12   -0.28    0.41
   2   4 -12   -0.55    0.43
  -2   4  12    0.04    0.47
   1  -4 -12    4.02    1.07
   1  -4 -12    5.22    1.03
  -1   4  12    4.10    1.01
   0  -4 -12   13.08    1.38
   0  -4 -12   14.77    1.69
   0  -4 -12   10.29    1.40
   0   4  12   10.55    1.55
   0   4 -12   14.75    1.61
  -1  -4 -12    0.34    0.55
  -1  -4 -12    0.73    0.56
  -1  -4 -12    0.19    0.54
  -1   4 -12   -0.60    0.44
   1   4  12   -0.46    0.53
  -2  -4 -12    7.09    1.48
  -2  -4 -12    4.22    0.91
  -2   4 -12    3.26    1.03
  -3  -4 -12    2.15    0.82
  -3  -4 -12    2.43    0.79
  -3   4 -12    1.10    0.83
  -4  -4 -12    0.01    0.78
  -4  -4 -12    0.84    0.76
  -4   4 -12    1.14    0.78
  11  -5 -12    2.07    1.02
  11  -5 -12    1.71    1.02
  11   5 -12    2.54    1.01
  11   5 -12    0.09    0.82
  11   5 -12    1.01    0.74
  10  -5 -12    1.64    0.97
  10  -5 -12    0.26    0.65
  10   5 -12    0.90    0.64
  10   5 -12    1.36    0.76
 -10   5  12    1.23    0.72
  10   5 -12    0.30    0.66
   9  -5 -12    4.48    1.16
   9  -5 -12    6.27    1.53
   9   5 -12    4.52    1.12
  -9   5  12    5.58    1.19
   9   5 -12    5.74    1.14
   9   5 -12    9.57    1.47
   8  -5 -12    5.01    1.49
   8  -5 -12    4.17    1.25
   8  -5 -12    5.60    1.32
   8   5 -12    6.15    1.20
  -8   5  12    5.18    1.07
   8   5 -12    5.72    1.13
   7  -5 -12    0.68    0.65
   7  -5 -12   -0.34    0.49
   7  -5 -12    1.15    0.73
  -7   5  12    0.60    0.51
   7   5 -12    0.65    0.50
   6  -5 -12    1.25    0.68
   6  -5 -12    1.71    0.76
  -6   5  12    1.49    0.67
   6   5 -12    1.33    0.66
  -6   5  12    1.12    0.60
   5  -5 -12    2.55    0.89
   5  -5 -12    1.85    0.79
   5   5 -12    2.31    0.64
  -5   5  12    1.98    0.78
   5   5 -12    2.80    0.57
  -5   5  12    0.75    0.67
   4  -5 -12   -0.83    0.41
   4  -5 -12    0.27    0.46
  -4   5  12    0.25    0.52
   4   5 -12    1.06    0.57
   3  -5 -12    1.77    0.71
   3  -5 -12    1.77    0.77
   3   5 -12    1.61    0.68
  -3   5  12    2.56    0.90
   2  -5 -12   15.05    1.44
   2  -5 -12   16.73    1.78
   2   5 -12   14.86    1.58
  -2   5  12   15.37    1.64
   1  -5 -12    1.78    0.74
   1  -5 -12    0.98    0.70
   1   5 -12    1.05    0.68
  -1   5  12    0.38    0.65
   0  -5 -12    2.53    0.92
   0  -5 -12    3.71    0.89
   0  -5 -12    2.09    0.73
   0   5  12    2.77    1.02
   0   5 -12    2.58    0.90
  -1  -5 -12    0.13    0.46
  -1  -5 -12    0.79    0.71
  -1  -5 -12    0.04    0.61
   1   5  12   -0.68    0.59
  -1   5 -12    0.08    0.41
  -2  -5 -12   -0.44    0.48
  -2  -5 -12   -0.33    0.56
  -2   5 -12   -0.23    0.56
  -3  -5 -12   -1.04    0.48
  -3  -5 -12    0.58    0.65
  -3   5 -12    0.29    0.76
  10  -6 -12   16.93    2.62
  10  -6 -12   15.07    2.17
  10   6 -12   13.75    1.78
  10   6 -12   14.39    1.85
  10   6 -12   13.73    1.94
 -10   6  12   17.51    1.95
   9  -6 -12    0.39    0.66
   9  -6 -12    0.12    0.64
   9   6 -12    1.36    0.75
   9   6 -12    1.81    0.81
  -9   6  12    0.97    0.70
   9   6 -12    0.57    0.64
   8  -6 -12   -0.88    0.46
   8  -6 -12    0.38    0.66
   8   6 -12   -0.51    0.41
   8   6 -12    0.47    0.56
  -8   6  12    0.23    0.48
   7  -6 -12    0.60    0.57
  -7   6  12    0.22    0.40
   7   6 -12   -0.17    0.42
   6  -6 -12    1.68    0.86
   6  -6 -12    1.08    0.66
  -6   6  12    0.84    0.64
  -6   6  12    0.79    0.58
   6   6 -12    2.68    0.80
   5  -6 -12   -0.04    0.52
   5  -6 -12    0.77    0.58
   5   6 -12   -0.40    0.36
  -5   6  12    0.11    0.52
  -5   6  12   -0.66    0.43
   5   6 -12   -0.25    0.30
   4  -6 -12   -0.03    0.53
   4  -6 -12    0.61    0.60
   4   6 -12   -0.20    0.46
  -4   6  12   -0.57    0.29
  -4   6  12    0.81    0.58
   3  -6 -12   10.69    1.54
   3  -6 -12   11.65    1.80
   3   6 -12   13.30    1.76
  -3   6  12   12.13    1.74
   2  -6 -12   14.66    1.69
   2  -6 -12   15.07    1.54
  -2   6  12   12.44    2.01
   2   6 -12   14.55    1.52
   1  -6 -12    1.27    0.60
   1  -6 -12    0.64    0.67
  -1   6  12    0.62    0.67
   1   6 -12    1.00    0.64
   0  -6 -12    7.66    1.43
   0  -6 -12   10.48    1.60
   0  -6 -12    6.41    1.13
   0   6 -12    8.34    1.42
   0   6  12    7.80    1.54
  -1  -6 -12    0.95    0.55
  -1  -6 -12    1.09    0.70
  -1  -6 -12    0.13    0.66
  -1   6 -12    0.17    0.53
   1   6  12    1.04    0.86
  -2  -6 -12    1.71    0.85
  -2  -6 -12    2.44    0.77
   2   6  12    2.35    1.04
  -3  -6 -12   -1.19    0.57
  -3  -6 -12    0.99    0.73
  -3   6 -12   -0.71    0.47
  10  -7 -12   -0.22    0.53
  10  -7 -12   -0.54    0.61
  10   7 -12   -0.17    0.69
 -10   7  12    0.89    0.77
  10   7 -12   -0.89    0.54
   9  -7 -12    0.14    0.60
   9  -7 -12    0.36    0.64
   9   7 -12    0.30    0.58
   9   7 -12    0.17    0.62
   9   7 -12    0.18    0.64
  -9   7  12   -0.36    0.44
   8  -7 -12    3.37    1.17
   8  -7 -12    2.82    0.97
   8   7 -12    3.55    0.98
   8   7 -12    3.45    0.90
  -8   7  12    2.69    0.94
   7  -7 -12   12.30    2.98
   7  -7 -12    9.56    1.61
  -7   7  12   15.45    1.72
   7   7 -12   15.32    1.56
   6  -7 -12    1.07    0.69
   6  -7 -12    0.68    0.61
  -6   7  12    1.25    0.68
  -6   7  12    0.43    0.51
   6   7 -12   -0.09    0.48
   5  -7 -12    0.25    0.48
   5  -7 -12   -0.42    0.45
  -5   7  12    1.04    0.61
   5   7 -12    0.60    0.38
  -5   7  12    0.33    0.62
   4  -7 -12    6.16    1.38
   4  -7 -12    8.92    1.61
  -4   7  12    5.95    1.30
  -4   7  12    5.49    1.14
   4   7 -12    6.01    1.12
   3  -7 -12    0.21    0.46
   3  -7 -12   -0.03    0.57
   3   7 -12    0.20    0.38
   2  -7 -12    5.48    1.24
  -2   7  12    3.45    1.15
   2   7 -12    4.64    1.09
   1  -7 -12    0.52    0.65
   1  -7 -12    2.05    0.88
   1   7 -12    0.47    0.56
   0  -7 -12    1.92    0.81
   0  -7 -12    0.96    0.64
   0  -7 -12    1.21    0.81
   0   7 -12    0.74    0.69
   0   7  12    1.68    0.83
  -1  -7 -12   -0.96    0.48
  -1  -7 -12    0.46    0.63
  -1  -7 -12   -0.21    0.47
  -1   7 -12   -0.56    0.46
   1   7  12    0.95    0.74
  -2  -7 -12    2.74    0.77
  -2  -7 -12    1.94    0.87
  -2  -7 -12    3.91    1.14
  -2   7 -12    3.31    0.92
   2   7  12    2.27    0.98
  -3  -7 -12   -0.53    0.67
  -3  -7 -12   -0.67    0.65
  -3   7 -12    0.34    0.54
  10  -8 -12    5.52    1.48
  10  -8 -12    6.86    1.86
  10   8 -12    6.34    1.35
  10   8 -12    4.40    1.12
  10   8 -12    4.32    1.16
 -10   8  12    5.25    1.19
   9  -8 -12    1.45    0.84
   9  -8 -12    1.21    0.77
   9   8 -12    0.97    0.70
   9   8 -12    2.17    0.89
  -9   8  12   -0.25    0.47
   9   8 -12    2.58    0.80
   8  -8 -12    3.77    1.26
   8  -8 -12    4.18    1.28
   8   8 -12    4.50    1.02
   8   8 -12    2.61    0.89
  -8   8  12    2.02    0.83
   7  -8 -12    0.38    0.60
   7  -8 -12    0.67    0.73
   7   8 -12    2.01    0.75
  -7   8  12    1.66    0.79
   6  -8 -12    2.04    0.96
   6  -8 -12    0.54    0.62
   6   8 -12    2.69    0.83
  -6   8  12    3.44    0.95
  -6   8  12    2.14    0.80
   5  -8 -12    1.03    0.69
   5  -8 -12    0.84    0.71
  -5   8  12    1.31    0.70
   5   8 -12    0.26    0.58
   5   8 -12    1.79    0.48
  -5   8  12    2.94    0.91
   4  -8 -12    5.51    1.23
   4  -8 -12    7.29    1.37
   4   8 -12    6.45    1.16
  -4   8  12    7.08    1.17
   3  -8 -12    1.82    0.83
   3  -8 -12    2.06    0.86
  -3   8  12    1.56    0.70
   3   8 -12    0.52    0.55
   2  -8 -12   12.41    1.88
   2  -8 -12    8.80    1.50
  -2   8  12    8.01    1.43
   2   8 -12    7.38    1.25
   1  -8 -12    5.36    1.30
   1  -8 -12    3.38    1.23
   1   8 -12    2.49    0.78
  -1   8  12    4.70    1.08
   0  -8 -12   14.11    2.04
   0  -8 -12   17.62    1.86
   0   8  12   12.55    2.54
   0   8 -12   15.28    1.67
  -1  -8 -12   -0.47    0.47
  -1  -8 -12    0.17    0.63
  -1  -8 -12    0.84    0.68
  -1   8 -12   -0.90    0.56
   1   8  12   -0.36    0.78
  -2  -8 -12    4.31    1.16
  -2  -8 -12    4.88    0.96
  -2  -8 -12    5.01    1.51
   2   8  12    6.49    1.45
  -2   8 -12    3.92    1.10
   9  -9 -12   -0.20    0.67
   9   9 -12   -0.12    0.68
   9   9 -12   -0.02    0.60
   9   9 -12    0.36    0.63
  -9   9  12    1.95    1.28
   8  -9 -12   -0.24    0.60
   8  -9 -12    0.17    0.68
   8   9 -12   -0.12    0.56
  -8   9  12    0.42    0.58
   8   9 -12    0.34    0.50
   7  -9 -12    1.60    0.88
   7  -9 -12    0.13    0.71
  -7   9  12   -0.35    0.54
   7   9 -12    0.15    0.47
   6  -9 -12    1.26    0.73
   6  -9 -12   -0.32    0.68
  -6   9  12    2.15    0.82
   6   9 -12    0.95    0.57
  -6   9  12    0.83    0.65
   5  -9 -12    3.12    0.90
  -5   9  12    2.08    0.80
  -5   9  12    2.10    0.85
   5   9 -12    2.26    0.48
   5   9 -12    3.01    0.81
   4  -9 -12   -0.35    0.54
   4  -9 -12    1.55    0.70
   4   9 -12    1.28    0.64
  -4   9  12    0.94    0.62
  -4   9  12    0.03    0.81
   3  -9 -12    4.86    1.57
   3  -9 -12    4.08    1.09
   3   9 -12    3.58    0.94
  -3   9  12    3.98    0.90
  -3   9  12    1.47    0.78
   2  -9 -12    0.36    0.65
   2  -9 -12    0.55    0.74
  -2   9  12    0.02    0.64
   2   9 -12    0.36    0.45
   1  -9 -12   12.78    1.90
   1  -9 -12   12.58    1.78
  -1   9  12   15.27    2.12
   1   9 -12   12.19    1.69
   0  -9 -12    4.38    1.82
   0  -9 -12    5.21    1.24
   0   9  12    2.70    0.94
   0   9 -12    3.52    0.97
  -1  -9 -12    1.93    0.75
  -1  -9 -12    0.61    0.78
  -1  -9 -12    0.90    0.79
   1   9  12    0.50    1.13
  -1   9 -12    1.10    0.54
  -2  -9 -12   -0.09    0.61
  -2  -9 -12   -0.46    0.78
  -2  -9 -12   -0.07    0.68
   2   9  12    0.44    0.87
  -2   9 -12    1.51    0.83
   8 -10 -12    2.16    1.05
   8 -10 -12    1.01    0.82
   8  10 -12    1.10    0.74
   8  10 -12    0.06    0.61
  -8  10  12    4.40    1.22
   7 -10 -12    3.01    1.20
   7 -10 -12    2.40    0.89
   7  10 -12    3.11    0.83
  -7  10  12    1.62    0.77
   6 -10 -12    6.36    1.51
   6 -10 -12    7.46    1.52
   6  10 -12    5.14    1.06
  -6  10  12    5.30    1.17
  -6  10  12    4.33    1.09
   5 -10 -12   -0.75    0.43
   5 -10 -12    0.61    0.71
  -5  10  12    1.04    0.58
  -5  10  12    0.17    0.59
   5  10 -12    0.39    0.51
   4 -10 -12    1.59    0.89
   4 -10 -12    2.24    0.99
  -4  10  12    2.31    0.92
   4  10 -12    1.39    0.63
  -4  10  12    3.81    0.96
   3 -10 -12    2.81    1.20
   3 -10 -12    0.85    0.80
  -3  10  12    2.18    0.76
   3  10 -12    1.63    0.70
   2 -10 -12    2.37    1.50
   2 -10 -12    3.43    1.04
  -2  10  12    1.91    1.05
   2  10 -12    3.07    0.88
   1 -10 -12    0.66    0.66
   1 -10 -12    0.61    0.74
   1  10 -12    0.13    0.44
  -1  10  12    0.90    0.70
   0 -10 -12    1.27    0.73
   0 -10 -12    0.24    0.61
   0  10 -12    1.16    0.77
   0  10  12   -0.78    0.65
  -1 -10 -12   10.19    1.40
  -1 -10 -12   10.52    1.66
  -1 -10 -12   13.62    2.08
  -1  10 -12   10.55    1.62
   1  10  12   12.10    2.03
   8 -11 -12    2.90    1.13
   8 -11 -12    2.43    1.13
  -8  11  12    2.46    0.95
   8  11 -12    0.93    0.82
   8  11 -12    1.18    0.80
   7 -11 -12   -0.94    0.58
   7 -11 -12   -0.18    0.53
   7  11 -12   -0.88    0.56
  -7  11  12   -0.07    0.48
   7  11 -12   -0.42    0.49
   6 -11 -12    0.48    0.81
   6 -11 -12    0.43    0.75
   6  11 -12    1.67    0.67
  -6  11  12    1.13    0.68
  -6  11  12    2.11    0.88
   5 -11 -12    0.47    0.86
   5 -11 -12    0.22    0.70
   5  11 -12   -0.73    0.43
  -5  11  12    1.33    1.06
   4 -11 -12    3.75    1.09
   4 -11 -12    2.36    1.13
   4  11 -12    3.47    0.90
  -4  11  12    8.27    1.54
  -4  11  12    4.24    0.96
   3 -11 -12    9.28    1.74
   3 -11 -12    6.97    1.46
  -3  11  12    5.58    1.26
   3  11 -12    5.93    1.13
  -3  11  12    6.69    1.24
   2 -11 -12    0.97    0.76
   2 -11 -12    1.51    0.82
  -2  11  12    2.79    0.91
   2  11 -12    1.17    0.58
   1 -11 -12    1.15    0.75
   1 -11 -12    3.53    0.98
  -1  11  12    2.11    0.91
   1  11 -12    3.10    0.84
   0 -11 -12    0.96    0.83
   0 -11 -12    0.69    0.71
   0  11  12    1.83    0.87
  -1 -11 -12    0.58    0.85
  -1 -11 -12    0.17    0.82
  -1  11 -12   -0.32    0.49
   7 -12 -12    0.72    0.76
   7 -12 -12   -1.39    0.73
   7  12 -12   -0.82    0.60
  -7  12  12    1.59    1.39
   7  12 -12   -0.52    0.45
   6 -12 -12   -0.47    0.78
   6 -12 -12    0.50    0.70
   6  12 -12    0.75    0.54
  -6  12  12    1.48    0.96
   5 -12 -12    0.52    0.72
   5 -12 -12    0.07    0.79
  -5  12  12    0.03    0.47
   5  12 -12    0.25    0.54
   4 -12 -12   -0.87    0.58
   4 -12 -12   -1.31    0.68
  -4  12  12    0.60    0.53
  -4  12  12    1.69    0.81
   4  12 -12    0.20    0.51
   3 -12 -12    0.25    0.65
   3 -12 -12    0.35    0.67
  -3  12  12   -0.28    0.51
  -3  12  12   -0.75    0.67
   3  12 -12    0.73    0.55
   2 -12 -12    2.36    1.02
   2 -12 -12    2.63    1.13
  -2  12  12    2.30    0.75
   2  12 -12    3.32    0.81
  -2  12  12    3.09    0.89
   1 -12 -12    4.62    1.27
   1 -12 -12    4.29    1.31
   1  12 -12    5.76    1.14
  -1  12  12    6.00    1.41
   0 -12 -12    0.90    0.66
   0  12  12    0.25    0.81
   0  12 -12   -0.14    0.52
   5 -13 -12    0.47    0.71
   5 -13 -12    1.17    0.89
  -5  13  12   -1.79    0.91
   5  13 -12   -0.38    0.41
  -5  13  12    1.02    0.74
   4 -13 -12    0.33    0.75
   4 -13 -12   -0.77    1.02
  -4  13  12   -0.51    0.56
  -4  13  12   -0.59    0.61
   4  13 -12    0.51    0.52
   3 -13 -12    0.42    0.93
   3 -13 -12    2.47    1.02
   3  13 -12   -0.49    0.49
  -3  13  12   -0.71    0.72
  -3  13  12    0.52    0.56
   2 -13 -12    4.16    1.26
   2 -13 -12    2.80    1.08
  10   0 -13    1.00    0.68
  10   0 -13    0.11    0.58
  10   0 -13   -0.12    0.86
   9   0 -13    1.51    0.89
   9   0 -13   -0.16    0.61
   9   0 -13   -0.89    0.65
   8   0 -13    0.47    0.57
   8   0 -13   -0.25    0.52
   8   0 -13    0.38    0.51
   7   0 -13   -0.28    0.46
   7   0 -13    0.07    0.42
   6   0 -13    0.87    0.68
   5   0 -13   -0.04    0.50
   5   0 -13    0.97    0.45
   4   0 -13    0.01    0.49
   4   0 -13    0.41    0.38
   3   0 -13    0.37    0.54
   3   0 -13    0.42    0.36
   2   0 -13   -0.78    0.44
   2   0 -13   -0.39    0.34
   1   0 -13    0.28    0.52
   0   0 -13    1.04    0.65
  -1   0 -13   -1.12    0.51
  -2   0 -13    0.04    0.54
  -3   0 -13   -0.75    0.66
  10  -1 -13    0.57    0.62
  10  -1 -13    1.48    0.91
  10   1 -13    1.10    0.73
  10   1 -13   -1.22    0.77
  10   1 -13   -0.26    0.67
   9  -1 -13    3.31    1.03
   9  -1 -13    2.65    0.97
   9  -1 -13    4.33    1.14
   9  -1 -13    1.44    0.76
   9   1 -13   -0.11    0.69
   9   1 -13    3.21    1.30
   9   1 -13    1.79    0.87
   8  -1 -13    0.91    0.68
   8  -1 -13    1.41    0.75
   8  -1 -13    0.79    0.67
   8   1 -13    0.93    0.74
   8   1 -13    0.88    0.69
   7  -1 -13    0.14    0.53
   7  -1 -13   -0.54    0.37
   7   1 -13   -0.44    0.34
   7   1 -13    0.14    0.50
   6  -1 -13    1.90    0.69
   6  -1 -13    2.18    0.81
   6   1 -13    1.21    0.74
   6   1 -13    3.32    0.81
   5  -1 -13    1.19    0.77
   5  -1 -13    0.54    0.46
   5   1 -13    0.55    0.65
   5   1 -13    0.52    0.46
   4  -1 -13    1.33    0.69
   4   1 -13    1.30    0.53
   4   1 -13    0.92    0.66
   3  -1 -13    1.49    0.53
   3  -1 -13    0.43    0.76
   3   1 -13    1.44    0.73
   3   1 -13    1.30    0.42
   2  -1 -13    2.49    1.10
   2  -1 -13    3.63    0.74
   2   1 -13    2.36    0.88
   1  -1 -13    6.50    0.87
   1   1 -13    5.38    1.21
   0  -1 -13    0.58    0.73
   0   1 -13    1.40    0.76
  -1  -1 -13    0.40    0.65
  -1   1 -13   -0.19    0.53
  -2  -1 -13    2.12    1.00
  -2   1 -13    0.80    0.80
  -3  -1 -13   -0.05    0.64
  -3   1 -13    1.07    0.79
  10  -2 -13    0.36    0.93
  10  -2 -13    1.43    0.90
  10   2 -13    1.03    0.82
  10   2 -13   -0.25    1.45
  10   2 -13    2.33    0.87
   9  -2 -13    1.74    0.87
   9  -2 -13    1.70    0.97
   9   2 -13    1.60    0.73
   9   2 -13    2.13    0.86
   9   2 -13    1.34    0.70
   8  -2 -13    0.89    0.68
   8  -2 -13    3.27    1.68
   8  -2 -13    0.22    0.55
   8   2 -13    0.91    0.71
   7  -2 -13   12.37    1.75
   7  -2 -13   10.41    1.75
   7   2 -13   10.07    1.46
   7   2 -13    9.37    1.56
   6  -2 -13   -0.53    0.42
   6  -2 -13   -0.07    0.54
   6   2 -13   -0.44    0.33
   6   2 -13   -0.03    0.36
   5  -2 -13    5.76    1.10
   5   2 -13    6.18    0.91
   5   2 -13    3.42    0.95
   4  -2 -13   -0.99    0.40
   4  -2 -13   -0.15    0.40
   4   2 -13    0.17    0.51
   4   2 -13    0.06    0.30
   3  -2 -13    0.40    0.45
   3   2 -13    0.56    0.54
   2  -2 -13    0.65    0.62
   2  -2 -13   -0.35    0.37
   2   2 -13    0.36    0.69
   1  -2 -13    6.38    0.96
   1  -2 -13    5.69    1.26
   1   2 -13    5.31    1.24
   0   2 -13    1.05    0.68
  -1  -2 -13   -0.42    0.48
  -1   2 -13   -0.62    0.54
  -2  -2 -13    1.60    0.82
  -2   2 -13    1.07    0.70
  -3  -2 -13    2.76    1.07
  -3   2 -13    2.51    0.91
  10  -3 -13    4.83    1.43
  10  -3 -13    3.17    1.19
  10   3 -13    2.99    1.02
  10   3 -13    3.92    1.15
  10   3 -13    5.13    1.18
   9  -3 -13    2.14    0.78
   9  -3 -13    1.34    0.91
   9  -3 -13    2.23    0.97
   9   3 -13    1.45    0.79
   9   3 -13    2.76    0.78
  -9   3  13    0.63    0.54
   9   3 -13    2.83    0.87
   8  -3 -13    0.94    0.65
   8  -3 -13    0.38    0.73
   8  -3 -13    1.74    0.84
  -8   3  13    0.07    0.41
   7  -3 -13   10.77    1.80
   7  -3 -13    6.68    1.38
   7   3 -13    6.77    1.33
   6  -3 -13    4.90    1.45
   6  -3 -13    4.16    1.04
   6   3 -13    3.99    0.81
   6   3 -13    6.73    1.27
   5  -3 -13    6.03    1.16
   5  -3 -13    4.27    1.07
   5   3 -13    5.54    0.98
   5   3 -13    5.14    1.13
   4  -3 -13   -0.24    0.41
   4  -3 -13   -0.51    0.40
   4   3 -13    0.85    0.61
   3  -3 -13    0.28    0.43
   3  -3 -13    0.52    0.58
   3   3 -13    0.94    0.56
   2  -3 -13   12.80    1.20
   2  -3 -13    9.70    1.56
   2   3 -13   10.72    2.19
   1  -3 -13    0.44    0.62
   1  -3 -13    0.59    0.46
   1   3 -13   -0.06    0.53
   0  -3 -13    3.63    0.95
   0  -3 -13    4.28    1.15
   0   3 -13    4.11    1.07
  -1  -3 -13    0.13    1.04
  -1   3 -13    0.86    0.66
  -2   3 -13    0.27    0.72
  -3  -3 -13    0.16    0.74
  -3   3 -13    0.30    0.91
  10  -4 -13   -0.31    0.59
  10  -4 -13   -0.69    0.56
 -10   4  13    0.35    0.69
  10   4 -13    1.57    0.85
  10   4 -13    0.85    0.59
   9  -4 -13    0.89    0.71
   9  -4 -13    0.78    0.66
   9   4 -13    0.24    0.68
  -9   4  13    0.32    0.46
   9   4 -13   -0.55    0.49
   8  -4 -13    2.40    0.94
   8  -4 -13    0.54    0.70
  -8   4  13    1.99    0.89
   8   4 -13    0.54    0.64
   7  -4 -13    2.02    0.86
   7  -4 -13    1.10    0.76
   7   4 -13    0.69    0.67
  -7   4  13    1.15    0.64
   6  -4 -13    1.16    0.75
   6  -4 -13    2.07    0.79
   6   4 -13    0.55    0.62
   6   4 -13    1.56    0.66
   5  -4 -13    6.26    1.30
   5  -4 -13    8.73    1.52
   5   4 -13    7.23    1.36
   5   4 -13    6.39    0.70
   4  -4 -13    0.38    0.66
   4  -4 -13    1.15    0.67
   4   4 -13    0.83    0.60
   3  -4 -13   14.85    1.70
   3  -4 -13   13.14    1.37
   3   4 -13   15.50    1.65
   2  -4 -13   19.23    1.58
   2  -4 -13   15.92    2.07
   2   4 -13   17.60    1.84
   1  -4 -13    3.20    1.06
   1  -4 -13    3.08    0.88
   1   4 -13    3.23    1.00
   0  -4 -13    4.61    1.09
   0  -4 -13    3.14    0.97
   0   4 -13    2.48    0.89
  -1  -4 -13    0.49    0.73
  -1   4 -13    0.28    0.61
  -2  -4 -13   -0.16    0.60
  -2   4 -13   -0.44    0.69
  10  -5 -13    9.45    1.89
  10  -5 -13    8.65    1.66
  10   5 -13    7.30    1.78
  10   5 -13   11.99    1.77
  10   5 -13   11.88    1.70
 -10   5  13    7.10    1.87
   9  -5 -13    0.63    0.62
   9  -5 -13    0.54    0.68
   9   5 -13    0.19    0.71
   9   5 -13    0.86    0.91
  -9   5  13    1.04    0.62
   9   5 -13    1.03    0.66
   8  -5 -13   11.05    1.76
   8  -5 -13   10.08    1.81
  -8   5  13   14.33    2.06
   8   5 -13   10.03    1.67
   8   5 -13    9.61    1.48
   7  -5 -13    0.29    0.85
   7  -5 -13    0.28    0.64
   7   5 -13   -0.16    0.56
  -7   5  13    0.47    0.45
   6  -5 -13    1.37    0.75
   6  -5 -13    0.35    0.58
   6   5 -13   -0.16    0.30
   6   5 -13    0.71    0.56
  -6   5  13   -0.18    0.44
   5  -5 -13    5.36    1.31
   5  -5 -13    7.32    1.45
   5   5 -13    4.40    1.08
   5   5 -13    5.67    0.73
   5   5 -13    6.14    0.65
   4  -5 -13    9.44    1.53
   4  -5 -13   10.86    1.63
   4   5 -13    7.69    1.33
   3  -5 -13    6.54    1.37
   3  -5 -13    7.43    1.31
   3   5 -13    6.99    1.31
   2  -5 -13    4.08    1.00
   2  -5 -13    3.79    1.11
   2   5 -13    2.96    0.99
   1  -5 -13    1.72    0.82
   1  -5 -13    0.73    0.74
   1   5 -13    1.37    0.72
   0  -5 -13   -0.27    0.53
   0  -5 -13   -1.21    0.54
   0   5 -13   -0.31    0.53
  -1  -5 -13    2.84    0.92
  -1  -5 -13    1.48    0.84
  -1   5 -13    4.07    1.16
  -2  -5 -13   -0.14    0.62
  -2   5 -13   -0.48    0.53
   9  -6 -13    0.14    0.66
   9  -6 -13    2.80    1.03
   9   6 -13    2.12    0.87
   9   6 -13    1.49    0.71
  -9   6  13    1.16    0.64
   9   6 -13    2.15    0.75
   8  -6 -13    8.80    1.72
   8  -6 -13    6.71    1.40
   8   6 -13   10.11    1.63
   8   6 -13    7.96    1.44
  -8   6  13    6.44    1.29
   7  -6 -13   -1.20    0.85
   7  -6 -13   -0.14    0.64
  -7   6  13    0.27    0.50
   7   6 -13   -0.22    0.49
   6  -6 -13    0.41    0.62
   6  -6 -13    0.50    0.72
   6   6 -13    0.84    0.60
  -6   6  13    0.52    0.49
   5  -6 -13   -0.28    0.43
   5  -6 -13    0.30    0.62
   5   6 -13    1.24    0.67
   4  -6 -13   15.37    2.14
   4  -6 -13   12.65    1.79
   4   6 -13   13.40    1.83
   3  -6 -13    3.84    1.04
   3  -6 -13    4.10    1.02
  -3   6  13    4.34    1.23
   3   6 -13    5.21    1.13
   2  -6 -13    4.88    1.14
   2  -6 -13    6.81    1.43
  -2   6  13    8.30    1.59
   2   6 -13    3.78    1.05
   1  -6 -13    0.12    0.65
   1  -6 -13    1.22    0.72
   1   6 -13   -0.46    0.52
   0  -6 -13    0.51    0.64
   0  -6 -13    0.05    0.65
  -1  -6 -13    2.22    0.97
  -1  -6 -13    3.93    1.15
  -1   6 -13    4.92    1.36
  -2  -6 -13    2.93    1.00
  -2   6 -13    3.37    1.21
   9  -7 -13    3.62    1.20
   9  -7 -13    3.10    1.15
   9   7 -13    3.17    1.04
   9   7 -13    2.53    0.72
   8  -7 -13   -0.47    0.69
   8  -7 -13   -0.43    0.63
   8   7 -13    1.59    0.80
  -8   7  13    0.48    0.58
   8   7 -13    1.76    0.78
   7  -7 -13    0.60    0.64
   7  -7 -13    0.71    0.80
   7   7 -13   -0.08    0.42
  -7   7  13   -0.06    0.48
   6  -7 -13    0.22    0.60
   6  -7 -13    1.02    0.80
   6   7 -13   -0.36    0.46
  -6   7  13    0.10    0.47
   5  -7 -13    0.94    0.69
   5  -7 -13   -0.14    0.56
   5   7 -13    0.47    0.51
  -5   7  13    0.30    0.50
   4  -7 -13   12.71    1.91
   4  -7 -13   12.55    1.85
   4   7 -13    9.04    1.51
   3  -7 -13    3.61    1.08
   3  -7 -13    3.00    0.94
   3   7 -13    5.13    1.10
  -3   7  13    3.82    1.16
   2  -7 -13    0.23    0.63
   2  -7 -13    0.23    0.62
   2   7 -13    0.17    0.54
  -2   7  13    1.27    0.73
   1  -7 -13    0.95    0.69
   1  -7 -13   -1.18    0.47
   1   7 -13    0.02    0.54
  -1   7  13   -0.07    0.77
   0  -7 -13    4.09    1.17
   0  -7 -13    2.67    0.97
   0   7 -13    4.77    1.07
  -1  -7 -13   -0.32    0.64
  -1  -7 -13    1.26    0.81
  -1   7 -13   -0.02    0.61
   9  -8 -13    5.04    1.39
   9  -8 -13    6.39    1.42
  -9   8  13    6.36    1.34
   9   8 -13    3.75    1.15
   9   8 -13    5.01    1.15
   9   8 -13    3.77    0.99
   8  -8 -13    2.90    1.25
   8  -8 -13    2.74    1.14
  -8   8  13    0.65    0.63
   8   8 -13    2.87    0.98
   8   8 -13    2.46    0.88
   7  -8 -13    0.47    0.77
   7  -8 -13    0.67    0.78
  -7   8  13    0.76    0.63
   7   8 -13   -0.25    0.51
   6  -8 -13    1.24    0.70
   6  -8 -13    0.22    0.71
   6   8 -13    1.07    0.63
  -6   8  13   -0.23    0.57
   5  -8 -13    7.71    1.89
   5  -8 -13    6.18    1.39
   5   8 -13    6.28    1.19
  -5   8  13    6.43    1.38
   4  -8 -13    1.99    0.81
   4   8 -13    0.47    0.55
  -4   8  13    0.66    0.59
  -4   8  13   -0.33    0.38
   3  -8 -13    1.58    0.80
   3  -8 -13    2.28    0.95
   3   8 -13    3.37    0.97
  -3   8  13    2.18    0.74
   2  -8 -13   -0.21    0.65
   2  -8 -13   -1.54    0.52
   2   8 -13   -0.40    0.49
  -2   8  13    0.57    0.73
   1  -8 -13    2.63    0.96
   1  -8 -13    4.80    1.20
   1   8 -13    1.69    0.72
  -1   8  13    1.97    1.01
   0  -8 -13   -0.90    0.53
   0  -8 -13   -0.03    0.71
   0   8  13    0.89    1.16
   0   8 -13   -1.26    0.42
  -1  -8 -13    2.72    1.08
  -1  -8 -13    1.25    0.93
  -1   8 -13    1.30    1.42
   8  -9 -13   10.30    2.11
   8   9 -13    7.29    1.22
  -8   9  13    5.63    1.94
   8   9 -13    6.74    1.78
   7  -9 -13    0.85    0.75
   7  -9 -13    1.79    0.90
  -7   9  13    2.30    0.94
   7   9 -13    1.19    0.73
   6  -9 -13   21.11    2.23
   6  -9 -13   22.56    2.27
  -6   9  13   26.45    2.21
   6   9 -13   20.11    1.88
   5  -9 -13    3.31    1.07
   5  -9 -13    3.82    1.22
   5   9 -13    1.57    0.74
  -5   9  13    5.32    1.18
   4  -9 -13    1.45    0.83
   4  -9 -13    1.42    0.75
  -4   9  13    1.83    0.82
  -4   9  13    3.47    1.14
   4   9 -13    0.10    0.50
   3  -9 -13   -0.63    0.62
  -3   9  13   -0.21    0.64
   3   9 -13    0.35    0.51
   2  -9 -13    9.97    1.64
   2  -9 -13    8.90    1.86
   2   9 -13   11.39    1.66
   1  -9 -13    1.66    1.33
   1  -9 -13    1.99    0.96
  -1   9  13    1.75    0.87
   1   9 -13    0.87    0.69
   0  -9 -13    9.44    1.79
   0  -9 -13    6.88    1.47
   0   9  13    6.03    1.48
   0   9 -13    6.28    1.46
   7 -10 -13    4.21    1.26
   7 -10 -13    5.14    1.45
  -7  10  13    5.67    1.42
   6 -10 -13    0.13    0.77
   6 -10 -13    1.36    0.97
  -6  10  13   -0.43    0.59
   6  10 -13    0.36    0.53
   5 -10 -13    0.16    0.69
   5 -10 -13    0.22    0.64
  -5  10  13    2.37    1.22
  -5  10  13    0.22    0.45
   5  10 -13    1.06    0.65
   4 -10 -13    0.58    0.92
   4 -10 -13    0.77    0.79
  -4  10  13   -0.53    0.41
  -4  10  13    2.71    0.93
   4  10 -13    0.91    0.64
   3 -10 -13    1.61    0.95
   3 -10 -13    0.77    0.80
  -3  10  13    1.12    0.64
   3  10 -13   -0.22    0.60
   2 -10 -13    8.70    1.74
   2 -10 -13    5.10    1.24
  -2  10  13    1.88    1.08
   2  10 -13    4.79    1.13
   1 -10 -13   -0.57    0.78
   1 -10 -13   -0.40    0.62
  -1  10  13    0.93    0.79
   1  10 -13    1.79    1.41
   0 -10 -13    1.79    0.98
   0 -10 -13    2.98    1.29
   0  10 -13    1.32    0.81
   0  10  13    1.94    0.99
   6 -11 -13    0.50    0.86
   6 -11 -13    0.64    0.81
  -6  11  13    0.71    0.63
   6  11 -13    0.82    1.00
   5 -11 -13    6.50    1.46
   5 -11 -13    8.48    1.75
  -5  11  13    5.55    1.46
   5  11 -13    5.75    1.25
  -5  11  13    6.23    1.24
   4 -11 -13   -0.26    0.73
   4 -11 -13   -0.01    0.73
  -4  11  13   -0.34    0.46
  -4  11  13    0.50    0.73
   4  11 -13    0.25    0.51
   3 -11 -13   -0.82    0.75
   3 -11 -13   -0.51    0.74
  -3  11  13    0.23    0.88
  -3  11  13    0.84    0.68
   3  11 -13    0.31    0.65
   2 -11 -13    0.17    0.90
   2 -11 -13   -0.21    0.63
   2  11 -13    0.21    0.75
  -2  11  13    1.13    0.85
   9   0 -14    1.50    0.87
   9   0 -14    1.14    0.75
   9   0 -14    1.48    0.88
   8   0 -14    1.51    0.66
   8   0 -14    1.32    0.88
   7   0 -14    1.73    0.88
   7   0 -14    3.42    0.94
   6   0 -14   14.16    1.37
   6   0 -14   13.61    2.00
   5   0 -14    5.69    0.99
   5   0 -14    6.49    1.44
   4   0 -14   -0.47    0.54
   4   0 -14    0.38    0.38
   3   0 -14    0.24    0.65
   3   0 -14    0.11    0.43
   2   0 -14    1.92    0.84
   1   0 -14    0.44    0.65
   0   0 -14   10.61    1.76
  -1   0 -14    2.91    1.24
   9  -1 -14    8.64    1.79
   9  -1 -14    7.94    1.62
   9  -1 -14    7.03    1.55
   9   1 -14    5.55    1.47
   9   1 -14    8.74    1.64
   9   1 -14    7.09    1.46
   8  -1 -14   19.24    1.85
   8  -1 -14   19.95    2.14
   8   1 -14   17.46    2.02
   8   1 -14   17.56    1.73
   7  -1 -14   -0.46    0.48
   7  -1 -14   -0.43    0.54
   7   1 -14    0.97    0.71
   7   1 -14   -0.20    0.46
   6  -1 -14    7.16    1.56
   6  -1 -14    8.62    1.29
   6   1 -14    7.63    1.61
   6   1 -14    7.91    1.18
   5  -1 -14    0.44    0.50
   5  -1 -14    0.91    0.57
   5   1 -14    0.36    0.45
   5   1 -14    0.56    0.67
   4  -1 -14    0.08    0.34
   4  -1 -14   -0.48    0.56
   4   1 -14   -0.23    0.30
   4   1 -14    0.40    0.52
   3  -1 -14    2.50    0.62
   3  -1 -14    2.07    0.81
   3   1 -14    2.37    0.89
   2  -1 -14    0.23    0.66
   2  -1 -14    2.35    0.66
   2   1 -14    0.57    0.63
   1  -1 -14    8.47    1.55
   1   1 -14    7.08    1.50
   0  -1 -14    2.21    0.86
   0   1 -14    0.83    0.75
  -1  -1 -14   12.63    2.09
  -1   1 -14    9.80    1.66
   9  -2 -14   18.34    2.51
   9  -2 -14   14.65    2.09
   9  -2 -14   18.64    1.95
   9   2 -14   15.31    2.10
   9   2 -14   15.52    3.16
   8  -2 -14    0.94    0.69
   8  -2 -14   -0.49    0.59
   8  -2 -14   -0.95    0.73
   8   2 -14    0.55    0.58
   7  -2 -14    2.08    0.94
   7  -2 -14    3.33    1.05
   7   2 -14    2.58    0.78
   6  -2 -14    0.23    0.61
   6  -2 -14    1.94    0.77
   6   2 -14   -0.48    0.55
   6   2 -14    0.71    0.42
   5  -2 -14    7.99    1.52
   5  -2 -14   10.53    1.42
   5   2 -14    7.72    1.50
   5   2 -14    9.79    0.95
   4  -2 -14    1.36    0.56
   4  -2 -14    0.62    0.60
   4   2 -14    1.10    0.65
   3  -2 -14    1.83    0.64
   3  -2 -14    0.43    0.72
   3   2 -14    3.62    1.05
   2  -2 -14    4.28    0.94
   2  -2 -14    2.65    1.03
   2   2 -14    0.81    0.72
   1  -2 -14    0.36    0.46
   1  -2 -14    0.45    0.72
   1   2 -14    0.39    0.63
   0  -2 -14    0.67    0.67
   0   2 -14    0.73    0.66
  -1  -2 -14    1.01    0.82
  -1   2 -14   -0.13    0.63
   9  -3 -14    1.03    0.84
   9  -3 -14    0.47    0.84
   9   3 -14    0.29    0.86
   9   3 -14    0.28    0.61
   8  -3 -14    2.08    0.94
   8  -3 -14    0.15    0.71
   8   3 -14    2.12    0.79
   8   3 -14    0.66    0.76
   7  -3 -14    0.47    0.70
   7  -3 -14    1.25    0.72
   7   3 -14    0.38    0.42
   7   3 -14    0.47    0.59
   6  -3 -14    1.07    0.68
   6   3 -14    0.91    0.67
   5  -3 -14    3.42    0.93
   5  -3 -14    2.39    0.91
   5   3 -14    3.08    1.01
   5   3 -14    3.60    0.63
   4  -3 -14    0.88    0.54
   4  -3 -14   -0.13    0.57
   4   3 -14   -0.54    0.44
   3  -3 -14    2.31    0.92
   3  -3 -14    1.96    0.67
   3   3 -14    3.80    1.06
   2  -3 -14   20.14    1.55
   2  -3 -14   16.85    2.29
   2   3 -14   12.48    1.77
   1  -3 -14    6.15    1.13
   1  -3 -14    3.50    1.19
   1   3 -14    2.58    1.00
   0  -3 -14    1.93    0.89
   0   3 -14    2.21    0.88
  -1  -3 -14    0.32    0.67
  -1   3 -14   -0.77    0.59
   9  -4 -14   10.14    1.84
   9  -4 -14   10.09    1.82
   9   4 -14   11.43    1.75
   8  -4 -14    5.88    1.34
   8  -4 -14    5.64    1.29
   8   4 -14    3.62    1.05
   7  -4 -14    2.56    1.05
   7  -4 -14    3.31    1.07
   7   4 -14    2.73    0.95
   7   4 -14    3.20    0.80
   6  -4 -14    4.20    1.23
   6  -4 -14    5.79    1.27
   6   4 -14    3.98    1.21
   6   4 -14    5.46    0.88
   5  -4 -14    2.16    0.86
   5  -4 -14    1.46    0.68
   5   4 -14    1.26    0.74
   4  -4 -14    1.91    0.81
   4  -4 -14    2.13    0.90
   4   4 -14    1.53    0.78
   3  -4 -14    0.41    0.57
   3  -4 -14    0.98    0.78
   3   4 -14    0.60    0.62
   2  -4 -14    3.95    1.05
   2  -4 -14    1.74    0.93
   1  -4 -14    7.65    1.38
   1  -4 -14    5.17    1.39
   1   4 -14    7.33    1.53
   0  -4 -14    0.16    0.71
   0  -4 -14    1.37    0.80
   0   4 -14    0.88    0.70
  -1  -4 -14   -1.10    0.55
  -1   4 -14   -0.83    0.51
   9  -5 -14   -0.59    0.62
   9  -5 -14    0.61    0.73
   9   5 -14    0.55    0.65
  -9   5  14   -0.05    0.46
   9   5 -14   -1.31    0.69
   8  -5 -14   -0.14    0.64
   8  -5 -14    1.87    0.90
  -8   5  14    0.32    0.65
   8   5 -14    0.99    0.68
   7  -5 -14    2.76    1.03
   7  -5 -14   -0.17    0.64
   7   5 -14    1.41    0.63
   7   5 -14    1.22    0.77
   6  -5 -14    2.00    0.82
   6  -5 -14    0.90    0.74
   6   5 -14    0.55    0.74
   6   5 -14    1.50    0.59
   5  -5 -14   -1.24    0.45
   5  -5 -14   -0.02    0.59
   5   5 -14    0.17    0.56
   4  -5 -14   14.76    2.96
   4  -5 -14    9.88    1.54
   4   5 -14    9.49    1.64
   3  -5 -14    2.06    0.81
   3  -5 -14    2.02    1.18
   3   5 -14    0.46    0.63
   2  -5 -14    3.03    0.93
   2  -5 -14    1.22    1.21
   2   5 -14    1.85    0.88
   1  -5 -14    5.07    2.03
   1  -5 -14    3.69    1.02
   1   5 -14    5.44    1.33
   0  -5 -14    0.85    0.71
   0  -5 -14    1.28    0.72
   0   5 -14    2.32    1.02
   8  -6 -14    1.81    1.08
   8  -6 -14    5.33    1.41
  -8   6  14    3.38    1.53
   7  -6 -14   -0.11    0.61
   7  -6 -14   -0.03    0.64
  -7   6  14    0.89    0.79
   7   6 -14   -0.09    0.44
   6  -6 -14    0.70    0.76
   6  -6 -14    0.42    0.69
   6   6 -14   -0.69    0.45
   6   6 -14   -0.04    0.35
   5  -6 -14    1.76    0.87
   5  -6 -14    0.34    1.31
   5   6 -14    0.54    0.54
   4  -6 -14   -0.42    0.57
   4  -6 -14    0.42    0.66
   4   6 -14   -0.74    0.44
   3  -6 -14    1.78    0.85
   3  -6 -14    1.61    0.78
   3   6 -14    2.69    0.99
   2  -6 -14    4.18    1.19
   2  -6 -14    2.56    0.96
   2   6 -14    3.79    1.10
   1  -6 -14    1.82    0.96
   1  -6 -14    1.69    0.87
   1   6 -14    0.70    0.63
   0  -6 -14    0.89    1.17
   0  -6 -14   -0.54    0.54
   0   6 -14    0.87    0.81
   8  -7 -14    1.87    0.94
   8  -7 -14   -0.24    0.64
   8   7 -14   -0.12    0.67
  -8   7  14    0.37    0.60
   7  -7 -14    1.60    0.97
   7  -7 -14    4.61    1.36
  -7   7  14    0.80    0.63
   7   7 -14    3.13    0.99
   6  -7 -14   10.28    1.80
   6  -7 -14    7.77    1.53
  -6   7  14    9.74    1.67
   6   7 -14    9.07    1.53
   5  -7 -14   -0.13    0.59
   5  -7 -14   -0.20    0.57
   5   7 -14    1.19    0.80
   4  -7 -14    0.76    0.80
   4  -7 -14    0.30    0.60
   4   7 -14    1.25    0.65
   3  -7 -14    2.61    0.88
   3  -7 -14    1.09    0.75
   3   7 -14    1.80    0.81
   2  -7 -14    0.78    0.81
   2  -7 -14    0.07    0.64
   2   7 -14   -0.28    0.62
   1  -7 -14    5.17    1.34
   1  -7 -14    4.47    1.25
   1   7 -14    4.16    1.15
   0  -7 -14    1.64    0.96
   0  -7 -14   -0.03    0.75
   0   7 -14    1.49    0.79
   7  -8 -14    6.76    1.50
   7  -8 -14    9.13    1.72
  -7   8  14    6.12    2.16
   7   8 -14    4.67    1.06
   6  -8 -14   14.52    2.30
   6   8 -14    8.23    1.53
  -6   8  14   11.29    1.82
   5  -8 -14    0.68    0.79
   5  -8 -14   -0.64    0.64
   5   8 -14    1.15    0.81
   4  -8 -14    0.53    0.69
   4  -8 -14    1.09    0.76
   4   8 -14    0.54    0.68
   3  -8 -14    1.31    0.84
   3  -8 -14   -0.89    0.68
   3   8 -14    1.00    0.57
   2  -8 -14    1.96    1.03
   2  -8 -14    0.89    0.78
   2   8 -14    2.73    1.10
   1  -8 -14    1.14    0.72
   1  -8 -14    0.72    0.92
   1   8 -14   -0.08    0.57
   6  -9 -14   17.48    2.65
   6  -9 -14    9.40    1.97
   6   9 -14   10.54    1.65
  -6   9  14   10.40    1.79
   5  -9 -14    1.98    0.94
   5  -9 -14    2.67    1.21
   5   9 -14    3.96    1.66
  -5   9  14    2.31    0.82
   4  -9 -14   -0.86    0.66
   4  -9 -14    0.06    0.77
   4   9 -14    0.97    1.09
   3  -9 -14    0.10    0.82
   3  -9 -14    0.61    0.69
   3   9 -14    0.07    0.90
   2  -9 -14    0.31    0.65
   2  -9 -14   -0.20    0.77
   2   9 -14   -0.37    0.45
   8   0 -15    0.01    0.64
   8   0 -15   -1.03    0.45
   7   0 -15    0.19    0.65
   7   0 -15   -0.04    0.43
   6   0 -15   -0.41    0.69
   6   0 -15    1.23    0.58
   5   0 -15    0.41    0.44
   5   0 -15    0.15    0.64
   4   0 -15    1.39    0.80
   4   0 -15   -0.68    0.45
   3   0 -15    0.20    0.61
   2   0 -15    0.21    0.65
   1   0 -15    0.50    0.79
   8  -1 -15    2.94    1.16
   8  -1 -15    3.70    1.17
   8   1 -15    4.03    1.25
   8   1 -15    2.96    0.93
   7  -1 -15    0.10    0.55
   7  -1 -15   -0.89    0.44
   7   1 -15    0.43    0.50
   7   1 -15    0.82    0.79
   6  -1 -15    0.18    0.51
   6  -1 -15    0.38    0.78
   6   1 -15   -0.88    0.39
   6   1 -15   -0.54    0.64
   5  -1 -15    0.48    0.66
   5  -1 -15    1.17    0.58
   5   1 -15    2.28    0.93
   5   1 -15    1.25    0.46
   4  -1 -15    0.43    0.54
   4  -1 -15    1.60    0.84
   4   1 -15   -0.46    0.50
   3  -1 -15   -0.95    0.54
   3  -1 -15   -0.31    0.79
   3   1 -15   -0.02    0.72
   2  -1 -15    0.26    0.60
   2   1 -15   -0.15    0.66
   1  -1 -15    2.80    1.08
   1   1 -15    2.78    1.15
   8  -2 -15    0.62    0.62
   8  -2 -15    0.26    0.83
   8   2 -15    0.01    0.56
   8   2 -15    0.32    0.58
   7  -2 -15    0.97    0.68
   7  -2 -15    0.94    0.63
   7   2 -15    0.73    0.49
   7   2 -15    0.20    0.68
   6  -2 -15    5.28    1.09
   6  -2 -15    2.55    1.11
   6   2 -15    4.46    1.18
   6   2 -15    3.19    0.77
   5  -2 -15   -0.27    0.59
   5  -2 -15   -0.12    0.52
   5   2 -15    0.11    0.35
   5   2 -15    0.17    0.73
   4  -2 -15    8.27    1.23
   4  -2 -15   10.02    1.82
   4   2 -15    7.74    1.62
   3  -2 -15    0.40    0.72
   3  -2 -15    0.16    0.56
   3   2 -15    0.22    0.60
   2  -2 -15    6.32    1.54
   2  -2 -15    7.39    1.06
   2   2 -15    6.14    1.38
   1  -2 -15    6.31    1.50
   1   2 -15    5.29    1.30
   8  -3 -15    0.02    0.61
   8  -3 -15    1.31    0.88
   8   3 -15   -0.23    0.40
   7  -3 -15    8.40    1.45
   7  -3 -15    5.31    1.35
   7   3 -15    5.77    1.04
   7   3 -15    5.43    1.31
   6  -3 -15    1.81    0.75
   6  -3 -15    0.85    0.78
   6   3 -15    0.68    0.48
   5  -3 -15    1.07    0.83
   5  -3 -15    0.77    0.57
   5   3 -15    1.15    1.03
   4  -3 -15    1.92    0.78
   4  -3 -15    1.66    0.81
   4   3 -15    1.00    0.74
   3  -3 -15   -0.52    0.47
   3  -3 -15    0.10    0.67
   3   3 -15    0.20    0.64
   2  -3 -15    1.45    0.92
   2  -3 -15    2.27    0.82
   2   3 -15    0.88    0.69
   1  -3 -15    5.62    1.48
   1  -3 -15    7.52    1.13
   1   3 -15    4.23    1.23
   7  -4 -15    2.34    0.95
   7  -4 -15    1.88    1.00
   7   4 -15    1.93    0.97
   7   4 -15    1.57    0.59
   6  -4 -15   -1.71    0.55
   6  -4 -15    0.15    0.72
   6   4 -15    1.08    0.77
   6   4 -15   -0.34    0.53
   5  -4 -15    0.87    0.88
   5  -4 -15    0.89    0.63
   4  -4 -15    0.35    0.57
   4  -4 -15   -0.27    0.46
   4   4 -15   -0.47    0.61
   3  -4 -15   -0.02    0.66
   3  -4 -15    0.39    0.59
   3   4 -15   -0.04    0.61
   2   4 -15    3.81    1.24
   7  -5 -15    2.41    1.13
   7  -5 -15    6.08    1.35
   7   5 -15    4.12    1.17
   7   5 -15    5.85    0.87
   6  -5 -15    1.28    0.81
   6  -5 -15    2.97    1.18
   6   5 -15    3.53    1.11
   5  -5 -15    1.02    0.86
   5  -5 -15    0.12    0.64
   5   5 -15   -0.10    0.61
   4  -5 -15    0.09    0.59
   4  -5 -15   -0.18    0.55
   4   5 -15   -0.07    0.48
   3  -5 -15    3.46    0.92
   3  -5 -15    5.57    1.34
   3   5 -15    5.40    1.30
   2  -5 -15    0.68    0.85
   2  -5 -15    3.09    0.97
   6  -6 -15   -0.30    0.59
   6  -6 -15    1.38    0.83
   6   6 -15    0.44    0.60
   5  -6 -15    0.85    0.76
   5  -6 -15    0.52    0.63
   4  -6 -15    0.81    0.85
   4  -6 -15    2.13    0.88
   3  -6 -15   -0.47    0.79
   3  -6 -15    2.28    0.88
   3   6 -15   -1.68    1.00
   0   0   0    0.00    0.00
;
_shelx_hkl_checksum              81551

# END of CIF
_chemical_name_systematic        
N,N-diethyl-9-isobutyl-6,7-dihydropyrido[1,2-a]indole-10-carboxamide
_chemical_name_common            4c
_chemical_melting_point          'Not measured'
_exptl_crystal_recrystallization_method 
'Re-crystallisation from solvent: DCM/pentane'
