
data_rx-24-78-1-lm1
_audit_block_doi                 10.5517/ccdc.csd.cc2jhn0q
_database_code_depnum_ccdc_archive 'CCDC 2338733'
loop_
_citation_id
_citation_doi
_citation_year
1 10.1002/anie.202408258 2024
loop_
_audit_author_name
_audit_author_address
'Guillermo Zaragoza'
;Universidade de Santiago de Compostela
Spain
;
_audit_update_record             
;
2024-03-08 deposited with the CCDC.	2024-12-03 downloaded from the CCDC.
;
_audit_creation_date             2024-02-29
_audit_creation_method           
;
Olex2 1.5
(compiled 2023.03.06 svn.rbb2c1857 for OlexSys, GUI svn.r6748)
;
_shelx_SHELXL_version_number     2018/3
_chemical_name_common            5l
_chemical_name_systematic        
(7S,8R)-N,N-diethyl-7-methyl-8-(prop-1-en-2-yl)-5,6,7,8-tetrahydroindolizine-1-carboxamide
_chemical_formula_moiety         'C17 H26 N2 O'
_chemical_formula_sum            'C17 H26 N2 O'
_chemical_formula_weight         274.40
_chemical_absolute_configuration (7S,8R)
_chemical_melting_point          'Not measured'
loop_
_atom_type_symbol
_atom_type_description
_atom_type_scat_dispersion_real
_atom_type_scat_dispersion_imag
_atom_type_scat_source
C C 0.0181 0.0091 'International Tables Vol C Tables 4.2.6.8 and 6.1.1.4'
H H 0.0000 0.0000 'International Tables Vol C Tables 4.2.6.8 and 6.1.1.4'
N N 0.0311 0.0180 'International Tables Vol C Tables 4.2.6.8 and 6.1.1.4'
O O 0.0492 0.0322 'International Tables Vol C Tables 4.2.6.8 and 6.1.1.4'

_shelx_space_group_comment       
;
The symmetry employed for this shelxl refinement is uniquely defined
by the following loop, which should always be used as a source of
symmetry information in preference to the above space-group names.
They are only intended as comments.
;
_space_group_crystal_system      monoclinic
_space_group_IT_number           4
_space_group_name_H-M_alt        'P 1 21 1'
_space_group_name_Hall           'P 2yb'
loop_
_space_group_symop_operation_xyz
'x, y, z'
'-x, y+1/2, -z'

_cell_length_a                   6.9954(3)
_cell_length_b                   12.2484(6)
_cell_length_c                   9.4085(5)
_cell_angle_alpha                90
_cell_angle_beta                 90.041(4)
_cell_angle_gamma                90
_cell_volume                     806.14(7)
_cell_formula_units_Z            2
_cell_measurement_reflns_used    6690
_cell_measurement_temperature    100.00
_cell_measurement_theta_max      70.23
_cell_measurement_theta_min      4.70
_shelx_estimated_absorpt_T_max   0.979
_shelx_estimated_absorpt_T_min   0.948
_exptl_absorpt_coefficient_mu    0.545
_exptl_absorpt_correction_T_max  0.9628
_exptl_absorpt_correction_T_min  0.8371
_exptl_absorpt_correction_type   none
_exptl_absorpt_process_details   
;
SADABS-2016/2 (Bruker,2016/2) was used for absorption correction.
wR2(int) was 0.1218 before and 0.0901 after correction.
The Ratio of minimum to maximum transmission is 0.8694.
The \l/2 correction factor is Not present.
;
_exptl_absorpt_special_details   ?
_exptl_crystal_colour            yellow
_exptl_crystal_colour_primary    yellow
_exptl_crystal_density_diffrn    1.130
_exptl_crystal_density_meas      ?
_exptl_crystal_density_method    ?
_exptl_crystal_description       plate
_exptl_crystal_F_000             300
_exptl_crystal_size_max          0.1
_exptl_crystal_size_mid          0.09
_exptl_crystal_size_min          0.04
_exptl_transmission_factor_max   ?
_exptl_transmission_factor_min   ?
_diffrn_reflns_av_R_equivalents  0.0849
_diffrn_reflns_av_unetI/netI     0.0557
_diffrn_reflns_Laue_measured_fraction_full 1.000
_diffrn_reflns_Laue_measured_fraction_max 1.000
_diffrn_reflns_limit_h_max       8
_diffrn_reflns_limit_h_min       -8
_diffrn_reflns_limit_k_max       14
_diffrn_reflns_limit_k_min       -14
_diffrn_reflns_limit_l_max       11
_diffrn_reflns_limit_l_min       -11
_diffrn_reflns_number            16605
_diffrn_reflns_point_group_measured_fraction_full 0.999
_diffrn_reflns_point_group_measured_fraction_max 0.998
_diffrn_reflns_theta_full        67.679
_diffrn_reflns_theta_max         68.224
_diffrn_reflns_theta_min         3.608
_diffrn_ambient_temperature      100.00
_diffrn_detector_area_resol_mean ?
_diffrn_measured_fraction_theta_full 1.000
_diffrn_measured_fraction_theta_max 1.000
_diffrn_measurement_device_type  'Bruker APEX-II CCD'
_diffrn_measurement_method       '\f and \w scans'
_diffrn_radiation_type           CuK\a
_diffrn_radiation_wavelength     1.54178
_diffrn_source                   ?
_diffrn_source_current           1.1
_diffrn_source_power             0.05500000000000001
_diffrn_source_voltage           50.0
_diffrn_standards_number         0
_reflns_Friedel_coverage         0.899
_reflns_Friedel_fraction_full    0.997
_reflns_Friedel_fraction_max     0.996
_reflns_number_gt                2710
_reflns_number_total             2945
_reflns_special_details          
;
 Reflections were merged by SHELXL according to the crystal
 class for the calculation of statistics and refinement.
 
 _reflns_Friedel_fraction is defined as the number of unique
 Friedel pairs measured divided by the number that would be
 possible theoretically, ignoring centric projections and
 systematic absences. Completness statistics refer to single and
 composite reflections containing twin component 1 only.
;
_reflns_threshold_expression     'I > 2\s(I)'
_computing_cell_refinement       'SAINT V8.40B (?, 2016)'
_computing_data_collection       ?
_computing_data_reduction        'SAINT V8.40B (?, 2016)'
_computing_molecular_graphics    'Olex2 1.5 (Dolomanov et al., 2009)'
_computing_publication_material  'Olex2 1.5 (Dolomanov et al., 2009)'
_computing_structure_refinement  'SHELXL 2018/3 (Sheldrick, 2015)'
_computing_structure_solution    'SHELXD  (Sheldrick, 2008)'
_refine_diff_density_max         0.187
_refine_diff_density_min         -0.183
_refine_diff_density_rms         0.038
_refine_ls_abs_structure_details 
;
 Flack x determined using 1136 quotients [(I+)-(I-)]/[(I+)+(I-)]
 (Parsons, Flack and Wagner, Acta Cryst. B69 (2013) 249-259).
;
_refine_ls_abs_structure_Flack   0.0(3)
_refine_ls_extinction_coef       .
_refine_ls_extinction_method     none
_refine_ls_goodness_of_fit_ref   1.082
_refine_ls_hydrogen_treatment    mixed
_refine_ls_matrix_type           full
_refine_ls_number_parameters     197
_refine_ls_number_reflns         2945
_refine_ls_number_restraints     1
_refine_ls_R_factor_all          0.0564
_refine_ls_R_factor_gt           0.0493
_refine_ls_restrained_S_all      1.082
_refine_ls_shift/su_max          0.000
_refine_ls_shift/su_mean         0.000
_refine_ls_structure_factor_coef Fsqd
_refine_ls_weighting_details     
'w=1/[\s^2^(Fo^2^)+0.6058P] where P=(Fo^2^+2Fc^2^)/3'
_refine_ls_weighting_scheme      calc
_refine_ls_wR_factor_gt          0.1069
_refine_ls_wR_factor_ref         0.1112
_refine_special_details          'Refined as a 2-component twin.,Twin'
_olex2_refinement_description    
;
1. Twinned data refinement
 Scales: 0.572(3)
 0.428(3)
2. Fixed Uiso
 At 1.2 times of:
  All C(H) groups, All C(H,H) groups
 At 1.5 times of:
  All C(H,H,H) groups
3.a Ternary CH refined with riding coordinates:
 C12(H12), C14(H14)
3.b Secondary CH2 refined with riding coordinates:
 C10(H10A,H10B), C4(H4A,H4B), C2(H2A,H2B), C11(H11A,H11B)
3.c Aromatic/amide H refined with riding coordinates:
 C8(H8), C7(H7)
3.d X=CH2 refined with riding coordinates:
 C16(H16A,H16B)
3.e Idealised Me refined as rotating group:
 C3(H3A,H3B,H3C), C1(H1A,H1B,H1C), C17(H17A,H17B,H17C)
;
_atom_sites_solution_hydrogens   mixed
_atom_sites_solution_primary     dual
_atom_sites_solution_secondary   ?
loop_
_atom_site_label
_atom_site_type_symbol
_atom_site_fract_x
_atom_site_fract_y
_atom_site_fract_z
_atom_site_U_iso_or_equiv
_atom_site_adp_type
_atom_site_occupancy
_atom_site_site_symmetry_order
_atom_site_calc_flag
_atom_site_refinement_flags_posn
_atom_site_refinement_flags_adp
_atom_site_refinement_flags_occupancy
_atom_site_disorder_assembly
_atom_site_disorder_group
O1 O 0.2993(5) 0.2319(3) 0.2914(4) 0.0296(9) Uani 1 1 d . . . . .
N2 N 0.5248(6) 0.5411(3) 0.4028(4) 0.0244(10) Uani 1 1 d . . . . .
C8 C 0.4824(7) 0.5289(4) 0.5446(6) 0.0251(11) Uani 1 1 d . . . . .
H8 H 0.527409 0.573261 0.620419 0.030 Uiso 1 1 calc R U . . .
N1 N 0.0447(6) 0.2838(3) 0.4235(5) 0.0245(10) Uani 1 1 d . . . . .
C9 C 0.4407(7) 0.4592(4) 0.3251(5) 0.0228(11) Uani 1 1 d . . . . .
C13 C 0.6279(9) 0.5335(6) -0.0474(7) 0.0386(15) Uani 1 1 d . . . . .
C6 C 0.3338(7) 0.3967(4) 0.4178(6) 0.0236(12) Uani 1 1 d . . . . .
C12 C 0.6263(7) 0.5232(4) 0.1127(6) 0.0286(12) Uani 1 1 d . . . . .
H12 H 0.745427 0.483444 0.140476 0.034 Uiso 1 1 calc R U . . .
C5 C 0.2242(8) 0.2992(4) 0.3713(6) 0.0238(11) Uani 1 1 d . . . . .
C10 C 0.6580(8) 0.6224(4) 0.3460(6) 0.0304(13) Uani 1 1 d . . . . .
H10A H 0.791014 0.599816 0.366512 0.036 Uiso 1 1 calc R U . . .
H10B H 0.635252 0.693745 0.392515 0.036 Uiso 1 1 calc R U . . .
C7 C 0.3627(7) 0.4406(4) 0.5559(6) 0.0254(11) Uani 1 1 d . . . . .
H7 H 0.308436 0.413460 0.641431 0.030 Uiso 1 1 calc R U . . .
C3 C -0.1154(10) 0.3444(5) 0.6465(7) 0.0417(16) Uani 1 1 d . . . . .
H3A H -0.197029 0.279530 0.652027 0.063 Uiso 1 1 calc R U . . .
H3B H -0.182155 0.406821 0.688764 0.063 Uiso 1 1 calc R U . . .
H3C H 0.003741 0.331034 0.698537 0.063 Uiso 1 1 calc R U . . .
C16 C 0.1630(8) 0.5786(6) 0.1356(7) 0.0436(17) Uani 1 1 d . . . . .
H16A H 0.042009 0.594489 0.094585 0.052 Uiso 1 1 calc R U . . .
H16B H 0.217990 0.627455 0.202494 0.052 Uiso 1 1 calc R U . . .
C1 C -0.1569(10) 0.1974(5) 0.2362(7) 0.0421(15) Uani 1 1 d . . . . .
H1A H -0.064963 0.222930 0.165108 0.063 Uiso 1 1 calc R U . . .
H1B H -0.260785 0.250632 0.245208 0.063 Uiso 1 1 calc R U . . .
H1C H -0.209555 0.126820 0.206493 0.063 Uiso 1 1 calc R U . . .
C4 C -0.0700(8) 0.3691(5) 0.4914(6) 0.0293(13) Uani 1 1 d . . . . .
H4A H -0.191246 0.377680 0.438310 0.035 Uiso 1 1 calc R U . . .
H4B H 0.000007 0.439227 0.485983 0.035 Uiso 1 1 calc R U . . .
C2 C -0.0572(8) 0.1846(4) 0.3784(6) 0.0308(13) Uani 1 1 d . . . . .
H2A H -0.153263 0.165376 0.451429 0.037 Uiso 1 1 calc R U . . .
H2B H 0.035125 0.123547 0.372058 0.037 Uiso 1 1 calc R U . . .
C14 C 0.4543(8) 0.4535(4) 0.1650(5) 0.0251(11) Uani 1 1 d . . . . .
H14 H 0.483974 0.375890 0.140492 0.030 Uiso 1 1 calc R U . . .
C15 C 0.2634(7) 0.4800(4) 0.0961(6) 0.0269(12) Uani 1 1 d . . . . .
C11 C 0.6307(8) 0.6337(5) 0.1873(7) 0.0309(13) Uani 1 1 d . . . . .
H11A H 0.736330 0.678061 0.147644 0.037 Uiso 1 1 calc R U . . .
H11B H 0.509420 0.672737 0.168402 0.037 Uiso 1 1 calc R U . . .
C17 C 0.1872(9) 0.4082(6) -0.0001(8) 0.0520(19) Uani 1 1 d . . . . .
H17A H 0.261406 0.410720 -0.088319 0.078 Uiso 1 1 calc R U . . .
H17B H 0.054248 0.428371 -0.020018 0.078 Uiso 1 1 calc R U . . .
H17C H 0.191301 0.334146 0.039227 0.078 Uiso 1 1 calc R U . . .
H13A H 0.736(8) 0.566(4) -0.080(6) 0.022(14) Uiso 1 1 d . . . . .
H13B H 0.511(9) 0.589(5) -0.095(7) 0.043(18) Uiso 1 1 d . . . . .
H13C H 0.618(10) 0.454(6) -0.096(7) 0.049(19) Uiso 1 1 d . . . . .

loop_
_atom_site_aniso_label
_atom_site_aniso_U_11
_atom_site_aniso_U_22
_atom_site_aniso_U_33
_atom_site_aniso_U_23
_atom_site_aniso_U_13
_atom_site_aniso_U_12
O1 0.032(2) 0.0213(17) 0.036(2) -0.0030(16) 0.0003(18) 0.0012(17)
N2 0.021(2) 0.022(2) 0.030(2) 0.002(2) -0.0014(19) -0.006(2)
C8 0.024(2) 0.026(2) 0.026(3) -0.001(2) -0.005(2) 0.003(2)
N1 0.020(2) 0.0187(19) 0.034(3) -0.0018(18) 0.001(2) -0.001(2)
C9 0.019(2) 0.020(2) 0.030(3) 0.001(2) -0.001(2) -0.004(2)
C13 0.026(3) 0.055(4) 0.035(4) 0.008(3) 0.008(3) -0.001(3)
C6 0.018(3) 0.024(3) 0.029(3) -0.001(2) 0.002(2) 0.001(2)
C12 0.022(2) 0.034(3) 0.030(3) 0.005(2) 0.006(2) 0.002(2)
C5 0.027(2) 0.016(2) 0.028(3) 0.000(2) -0.004(2) 0.003(2)
C10 0.026(3) 0.022(3) 0.043(4) 0.003(2) -0.001(3) -0.006(2)
C7 0.020(2) 0.025(3) 0.031(3) 0.001(2) 0.004(2) 0.002(2)
C3 0.034(3) 0.045(4) 0.047(4) 0.005(3) 0.007(3) 0.004(3)
C16 0.024(3) 0.054(4) 0.053(4) -0.018(3) -0.006(3) 0.011(3)
C1 0.041(3) 0.041(3) 0.044(4) 0.000(3) -0.014(3) -0.010(3)
C4 0.024(3) 0.027(3) 0.037(3) -0.002(2) 0.002(2) 0.003(2)
C2 0.028(3) 0.026(3) 0.038(3) 0.002(3) 0.000(3) -0.010(2)
C14 0.024(2) 0.025(3) 0.026(3) 0.002(2) 0.000(2) 0.001(2)
C15 0.021(2) 0.031(3) 0.029(3) 0.002(2) 0.002(2) -0.002(2)
C11 0.019(3) 0.033(3) 0.041(3) 0.009(3) 0.002(2) -0.005(2)
C17 0.037(4) 0.049(4) 0.069(5) -0.013(4) -0.020(4) -0.003(3)

_geom_special_details            
;
 All esds (except the esd in the dihedral angle between two l.s. planes)
 are estimated using the full covariance matrix.  The cell esds are taken
 into account individually in the estimation of esds in distances, angles
 and torsion angles; correlations between esds in cell parameters are only
 used when they are defined by crystal symmetry.  An approximate (isotropic)
 treatment of cell esds is used for estimating esds involving l.s. planes.
;
loop_
_geom_bond_atom_site_label_1
_geom_bond_atom_site_label_2
_geom_bond_distance
_geom_bond_site_symmetry_2
_geom_bond_publ_flag
O1 C5 1.233(6) . ?
N2 C8 1.375(7) . ?
N2 C9 1.373(6) . ?
N2 C10 1.466(6) . ?
C8 H8 0.9500 . ?
C8 C7 1.372(7) . ?
N1 C5 1.362(6) . ?
N1 C4 1.464(7) . ?
N1 C2 1.472(6) . ?
C9 C6 1.382(7) . ?
C9 C14 1.510(7) . ?
C13 C12 1.511(8) . ?
C13 H13A 0.91(6) . ?
C13 H13B 1.15(6) . ?
C13 H13C 1.08(7) . ?
C6 C5 1.485(7) . ?
C6 C7 1.421(8) . ?
C12 H12 1.0000 . ?
C12 C14 1.556(7) . ?
C12 C11 1.525(8) . ?
C10 H10A 0.9900 . ?
C10 H10B 0.9900 . ?
C10 C11 1.511(9) . ?
C7 H7 0.9500 . ?
C3 H3A 0.9800 . ?
C3 H3B 0.9800 . ?
C3 H3C 0.9800 . ?
C3 C4 1.524(8) . ?
C16 H16A 0.9500 . ?
C16 H16B 0.9500 . ?
C16 C15 1.445(8) . ?
C1 H1A 0.9800 . ?
C1 H1B 0.9800 . ?
C1 H1C 0.9800 . ?
C1 C2 1.516(8) . ?
C4 H4A 0.9900 . ?
C4 H4B 0.9900 . ?
C2 H2A 0.9900 . ?
C2 H2B 0.9900 . ?
C14 H14 1.0000 . ?
C14 C15 1.519(7) . ?
C15 C17 1.370(8) . ?
C11 H11A 0.9900 . ?
C11 H11B 0.9900 . ?
C17 H17A 0.9800 . ?
C17 H17B 0.9800 . ?
C17 H17C 0.9800 . ?

loop_
_geom_angle_atom_site_label_1
_geom_angle_atom_site_label_2
_geom_angle_atom_site_label_3
_geom_angle
_geom_angle_site_symmetry_1
_geom_angle_site_symmetry_3
_geom_angle_publ_flag
C8 N2 C10 124.4(4) . . ?
C9 N2 C8 110.2(4) . . ?
C9 N2 C10 125.0(4) . . ?
N2 C8 H8 126.5 . . ?
C7 C8 N2 107.0(5) . . ?
C7 C8 H8 126.5 . . ?
C5 N1 C4 124.4(4) . . ?
C5 N1 C2 117.2(4) . . ?
C4 N1 C2 116.7(4) . . ?
N2 C9 C6 107.5(4) . . ?
N2 C9 C14 122.6(4) . . ?
C6 C9 C14 129.6(5) . . ?
C12 C13 H13A 113(4) . . ?
C12 C13 H13B 116(3) . . ?
C12 C13 H13C 110(4) . . ?
H13A C13 H13B 102(4) . . ?
H13A C13 H13C 108(5) . . ?
H13B C13 H13C 109(5) . . ?
C9 C6 C5 122.7(5) . . ?
C9 C6 C7 106.9(5) . . ?
C7 C6 C5 130.3(5) . . ?
C13 C12 H12 107.1 . . ?
C13 C12 C14 111.6(5) . . ?
C13 C12 C11 112.6(5) . . ?
C14 C12 H12 107.1 . . ?
C11 C12 H12 107.1 . . ?
C11 C12 C14 110.9(4) . . ?
O1 C5 N1 121.4(5) . . ?
O1 C5 C6 119.8(5) . . ?
N1 C5 C6 118.7(5) . . ?
N2 C10 H10A 109.6 . . ?
N2 C10 H10B 109.6 . . ?
N2 C10 C11 110.1(5) . . ?
H10A C10 H10B 108.2 . . ?
C11 C10 H10A 109.6 . . ?
C11 C10 H10B 109.6 . . ?
C8 C7 C6 108.3(5) . . ?
C8 C7 H7 125.8 . . ?
C6 C7 H7 125.8 . . ?
H3A C3 H3B 109.5 . . ?
H3A C3 H3C 109.5 . . ?
H3B C3 H3C 109.5 . . ?
C4 C3 H3A 109.5 . . ?
C4 C3 H3B 109.5 . . ?
C4 C3 H3C 109.5 . . ?
H16A C16 H16B 120.0 . . ?
C15 C16 H16A 120.0 . . ?
C15 C16 H16B 120.0 . . ?
H1A C1 H1B 109.5 . . ?
H1A C1 H1C 109.5 . . ?
H1B C1 H1C 109.5 . . ?
C2 C1 H1A 109.5 . . ?
C2 C1 H1B 109.5 . . ?
C2 C1 H1C 109.5 . . ?
N1 C4 C3 113.0(5) . . ?
N1 C4 H4A 109.0 . . ?
N1 C4 H4B 109.0 . . ?
C3 C4 H4A 109.0 . . ?
C3 C4 H4B 109.0 . . ?
H4A C4 H4B 107.8 . . ?
N1 C2 C1 113.1(5) . . ?
N1 C2 H2A 109.0 . . ?
N1 C2 H2B 109.0 . . ?
C1 C2 H2A 109.0 . . ?
C1 C2 H2B 109.0 . . ?
H2A C2 H2B 107.8 . . ?
C9 C14 C12 109.8(4) . . ?
C9 C14 H14 106.7 . . ?
C9 C14 C15 111.1(5) . . ?
C12 C14 H14 106.7 . . ?
C15 C14 C12 115.3(4) . . ?
C15 C14 H14 106.7 . . ?
C16 C15 C14 119.7(5) . . ?
C17 C15 C16 121.1(5) . . ?
C17 C15 C14 119.1(5) . . ?
C12 C11 H11A 109.2 . . ?
C12 C11 H11B 109.2 . . ?
C10 C11 C12 112.1(5) . . ?
C10 C11 H11A 109.2 . . ?
C10 C11 H11B 109.2 . . ?
H11A C11 H11B 107.9 . . ?
C15 C17 H17A 109.5 . . ?
C15 C17 H17B 109.5 . . ?
C15 C17 H17C 109.5 . . ?
H17A C17 H17B 109.5 . . ?
H17A C17 H17C 109.5 . . ?
H17B C17 H17C 109.5 . . ?

loop_
_geom_torsion_atom_site_label_1
_geom_torsion_atom_site_label_2
_geom_torsion_atom_site_label_3
_geom_torsion_atom_site_label_4
_geom_torsion
_geom_torsion_site_symmetry_1
_geom_torsion_site_symmetry_2
_geom_torsion_site_symmetry_3
_geom_torsion_site_symmetry_4
_geom_torsion_publ_flag
N2 C8 C7 C6 1.0(5) . . . . ?
N2 C9 C6 C5 -179.1(4) . . . . ?
N2 C9 C6 C7 -2.5(5) . . . . ?
N2 C9 C14 C12 19.9(7) . . . . ?
N2 C9 C14 C15 -108.8(5) . . . . ?
N2 C10 C11 C12 -48.4(6) . . . . ?
C8 N2 C9 C6 3.2(5) . . . . ?
C8 N2 C9 C14 177.3(5) . . . . ?
C8 N2 C10 C11 -164.7(5) . . . . ?
C9 N2 C8 C7 -2.6(5) . . . . ?
C9 N2 C10 C11 22.6(7) . . . . ?
C9 C6 C5 O1 45.3(8) . . . . ?
C9 C6 C5 N1 -137.5(5) . . . . ?
C9 C6 C7 C8 1.0(6) . . . . ?
C9 C14 C15 C16 51.5(7) . . . . ?
C9 C14 C15 C17 -126.9(6) . . . . ?
C13 C12 C14 C9 -171.5(5) . . . . ?
C13 C12 C14 C15 -45.1(7) . . . . ?
C13 C12 C11 C10 -171.7(5) . . . . ?
C6 C9 C14 C12 -167.5(5) . . . . ?
C6 C9 C14 C15 63.8(7) . . . . ?
C12 C14 C15 C16 -74.2(6) . . . . ?
C12 C14 C15 C17 107.4(6) . . . . ?
C5 N1 C4 C3 -117.0(5) . . . . ?
C5 N1 C2 C1 -83.9(6) . . . . ?
C5 C6 C7 C8 177.2(5) . . . . ?
C10 N2 C8 C7 -176.2(5) . . . . ?
C10 N2 C9 C6 176.8(4) . . . . ?
C10 N2 C9 C14 -9.1(8) . . . . ?
C7 C6 C5 O1 -130.4(6) . . . . ?
C7 C6 C5 N1 46.7(8) . . . . ?
C4 N1 C5 O1 -165.6(5) . . . . ?
C4 N1 C5 C6 17.3(7) . . . . ?
C4 N1 C2 C1 81.8(6) . . . . ?
C2 N1 C5 O1 -1.1(7) . . . . ?
C2 N1 C5 C6 -178.2(5) . . . . ?
C2 N1 C4 C3 78.5(6) . . . . ?
C14 C9 C6 C5 7.4(9) . . . . ?
C14 C9 C6 C7 -176.0(6) . . . . ?
C14 C12 C11 C10 62.5(6) . . . . ?
C11 C12 C14 C9 -45.1(6) . . . . ?
C11 C12 C14 C15 81.3(6) . . . . ?

_shelx_res_file                  
;
TITL RX-24-78-1-LM1 in P21 #4
    rx-24-78-1-lm1.res
    created by SHELXL-2018/3 at 18:26:59 on 29-Feb-2024
REM Best SHELXD solution FINAL CC 77.38
REM Fragments: 20
CELL 1.54178 6.9954 12.2484 9.4085 90 90.0414 90
ZERR 2 0.0003 0.0006 0.0005 0 0.0038 0
LATT -1
SYMM -X,0.5+Y,-Z
SFAC C H N O
UNIT 34 52 4 2

L.S. 200
PLAN  5
SIZE 0.04 0.09 0.1
TEMP -173.15
CONF
fmap 2 53
MORE -1
BOND $H
ACTA
TWIN -1 0 0 0 -1 0 0 0 1 2
REM <olex2.extras>
REM <HklSrc "%.\\RX-24-78-1-LM1.hkl">
REM </olex2.extras>

WGHT    0.000000    0.605800
BASF   0.42787
FVAR       0.41490
O1    4    0.299329    0.231882    0.291420    11.00000    0.03196    0.02128 =
         0.03559   -0.00301    0.00027    0.00124
N2    3    0.524763    0.541053    0.402819    11.00000    0.02075    0.02209 =
         0.03050    0.00202   -0.00138   -0.00645
C8    1    0.482375    0.528909    0.544629    11.00000    0.02395    0.02569 =
         0.02578   -0.00059   -0.00489    0.00277
AFIX  43
H8    2    0.527409    0.573261    0.620419    11.00000   -1.20000
AFIX   0
N1    3    0.044745    0.283826    0.423526    11.00000    0.02043    0.01868 =
         0.03448   -0.00180    0.00069   -0.00128
C9    1    0.440711    0.459246    0.325062    11.00000    0.01852    0.01978 =
         0.03011    0.00053   -0.00120   -0.00384
C13   1    0.627901    0.533529   -0.047393    11.00000    0.02619    0.05488 =
         0.03484    0.00814    0.00841   -0.00136
C6    1    0.333843    0.396654    0.417800    11.00000    0.01784    0.02362 =
         0.02922   -0.00074    0.00243    0.00092
C12   1    0.626270    0.523189    0.112653    11.00000    0.02160    0.03384 =
         0.03026    0.00530    0.00553    0.00247
AFIX  13
H12   2    0.745427    0.483444    0.140476    11.00000   -1.20000
AFIX   0
C5    1    0.224249    0.299168    0.371340    11.00000    0.02707    0.01630 =
         0.02816   -0.00037   -0.00394    0.00270
C10   1    0.657965    0.622432    0.345965    11.00000    0.02582    0.02242 =
         0.04295    0.00270   -0.00092   -0.00644
AFIX  23
H10A  2    0.791014    0.599816    0.366512    11.00000   -1.20000
H10B  2    0.635252    0.693745    0.392515    11.00000   -1.20000
AFIX   0
C7    1    0.362708    0.440591    0.555906    11.00000    0.02047    0.02487 =
         0.03072    0.00138    0.00367    0.00191
AFIX  43
H7    2    0.308436    0.413460    0.641431    11.00000   -1.20000
AFIX   0
C3    1   -0.115406    0.344418    0.646530    11.00000    0.03380    0.04491 =
         0.04654    0.00544    0.00727    0.00416
AFIX 137
H3A   2   -0.197029    0.279530    0.652027    11.00000   -1.50000
H3B   2   -0.182155    0.406821    0.688764    11.00000   -1.50000
H3C   2    0.003741    0.331034    0.698537    11.00000   -1.50000
AFIX   0
C16   1    0.162989    0.578576    0.135577    11.00000    0.02430    0.05358 =
         0.05291   -0.01843   -0.00619    0.01133
AFIX  93
H16A  2    0.042009    0.594489    0.094585    11.00000   -1.20000
H16B  2    0.217990    0.627455    0.202494    11.00000   -1.20000
AFIX   0
C1    1   -0.156944    0.197375    0.236231    11.00000    0.04114    0.04131 =
         0.04369    0.00025   -0.01384   -0.00997
AFIX 137
H1A   2   -0.064963    0.222930    0.165108    11.00000   -1.50000
H1B   2   -0.260785    0.250632    0.245208    11.00000   -1.50000
H1C   2   -0.209555    0.126820    0.206493    11.00000   -1.50000
AFIX   0
C4    1   -0.069962    0.369096    0.491435    11.00000    0.02416    0.02679 =
         0.03707   -0.00205    0.00160    0.00282
AFIX  23
H4A   2   -0.191246    0.377680    0.438310    11.00000   -1.20000
H4B   2    0.000007    0.439227    0.485983    11.00000   -1.20000
AFIX   0
C2    1   -0.057218    0.184602    0.378364    11.00000    0.02846    0.02578 =
         0.03819    0.00161   -0.00028   -0.00974
AFIX  23
H2A   2   -0.153263    0.165376    0.451429    11.00000   -1.20000
H2B   2    0.035125    0.123547    0.372058    11.00000   -1.20000
AFIX   0
C14   1    0.454258    0.453493    0.165015    11.00000    0.02369    0.02513 =
         0.02638    0.00163    0.00026    0.00117
AFIX  13
H14   2    0.483974    0.375890    0.140492    11.00000   -1.20000
AFIX   0
C15   1    0.263372    0.479999    0.096134    11.00000    0.02107    0.03064 =
         0.02893    0.00192    0.00210   -0.00232
C11   1    0.630742    0.633710    0.187274    11.00000    0.01944    0.03268 =
         0.04068    0.00895    0.00173   -0.00497
AFIX  23
H11A  2    0.736330    0.678061    0.147644    11.00000   -1.20000
H11B  2    0.509420    0.672737    0.168402    11.00000   -1.20000
AFIX   0
C17   1    0.187159    0.408200   -0.000090    11.00000    0.03746    0.04929 =
         0.06922   -0.01259   -0.01952   -0.00338
AFIX 137
H17A  2    0.261406    0.410720   -0.088319    11.00000   -1.50000
H17B  2    0.054248    0.428371   -0.020018    11.00000   -1.50000
H17C  2    0.191301    0.334146    0.039227    11.00000   -1.50000
AFIX   0
H13A  2    0.736443    0.565916   -0.080425    11.00000    0.02197
H13B  2    0.511274    0.588691   -0.094941    11.00000    0.04306
H13C  2    0.617620    0.453888   -0.096141    11.00000    0.04930
HKLF 4




REM  RX-24-78-1-LM1 in P21 #4
REM wR2 = 0.1112, GooF = S = 1.082, Restrained GooF = 1.082 for all data
REM R1 = 0.0493 for 2710 Fo > 4sig(Fo) and 0.0564 for all 2945 data
REM 197 parameters refined using 1 restraints

END

WGHT      0.0000      0.6059

REM Highest difference peak  0.187,  deepest hole -0.183,  1-sigma level  0.038
Q1    1   0.1557  0.5999  0.2455  11.00000  0.05    0.19
Q2    1   0.5048  0.4359  0.6631  11.00000  0.05    0.16
Q3    1   0.4061  0.5275  0.2530  11.00000  0.05    0.15
Q4    1   0.4880  0.5227  0.3579  11.00000  0.05    0.14
Q5    1   0.7415  0.7475  0.0573  11.00000  0.05    0.14
;
_shelx_res_checksum              83235
_shelx_hkl_file                  
;
   1   0   0  150.05   10.66
   1   0   0  144.05   10.82
  -1   0   0  136.01   10.77
  -2   0   0    0.94    0.28
  -2   0   0    0.54    0.19
  -2   0   0    1.02    0.49
   2   0   0    0.47    0.59
  -2   0   0    0.18    0.45
   2   0   0    0.77    0.44
  -3   0   0    3.96    0.91
  -3   0   0    5.13    0.73
  -3   0   0    3.14    0.84
  -3   0   0    3.46    0.53
  -3   0   0    4.03    0.52
  -4   0   0    0.86    0.76
  -4   0   0   -0.29    0.66
  -4   0   0    1.36    0.41
  -4   0   0    0.80    0.26
  -5   0   0    2.16    0.87
  -5   0   0    2.73    0.43
   5   0   0    1.35    0.63
  -5   0   0    1.94    1.20
   5   0   0    1.85    1.49
   5   0   0    2.15    1.30
  -5   0   0    2.36    0.62
   5   0   0    1.93    0.83
   5   0   0    2.63    0.64
   5   0   0    4.18    1.11
  -5   0   0    2.21    1.59
   6   0   0   10.71    1.57
   6   0   0   14.43    1.98
  -6   0   0   12.73    1.22
  -6   0   0   10.75    1.42
   6   0   0   11.73    1.66
   6   0   0   13.06    2.11
   6   0   0   12.93    1.47
   6   0   0   11.96    2.04
   6   0   0   12.22    1.71
   7   0   0   15.70    2.23
   7   0   0   23.79    2.08
   7   0   0   19.79    2.87
  -7   0   0   25.88    2.32
  -7   0   0   20.72    1.90
   7   0   0   19.71    2.09
   7   0   0   25.22    3.03
   8   0   0    0.83    0.82
   8   0   0    0.12    1.06
   8   0   0   -0.56    0.76
   0  -1   0    0.06    0.24
   0  -1   0    0.03    0.14
   0  -1   0   -0.01    0.14
   0  -1   0   -0.01    0.19
   0   1   0    0.13    0.14
   0   1   0    0.16    0.27
   0   1   0    0.03    0.13
   0   1   0    0.07    0.17
   0   1   0    0.03    0.11
  -1  -1   0  227.13   17.42
  -1  -1   0  226.91   17.13
   1  -1   0  229.79   17.20
   1  -1   0  247.07   17.43
   1   1   0  241.06   17.45
   1   1   0  219.49   17.46
   1   1   0  237.89   17.41
   1   1   0  249.49   17.99
  -2  -1   0  555.55   42.88
   2  -1   0  607.12   43.53
  -2  -1   0  609.53   43.23
  -2  -1   0  565.56   42.84
   2  -1   0  597.50   43.03
  -2  -1   0  564.71   43.40
  -2  -1   0  582.57   42.85
   2   1   0  575.36   42.36
  -3  -1   0   35.81    2.79
  -3  -1   0   38.01    3.68
   3  -1   0   37.79    3.84
   3  -1   0   34.06    2.90
  -3  -1   0   34.15    2.86
   3  -1   0   37.23    3.14
  -3  -1   0   38.52    3.34
  -3  -1   0   34.55    2.73
   3   1   0   35.53    2.80
  -3   1   0   29.46    2.67
  -3   1   0   37.13    3.40
   4  -1   0   37.01    3.08
  -4  -1   0   35.12    2.83
  -4  -1   0   38.56    3.75
  -4  -1   0   39.04    3.05
  -4  -1   0   37.75    4.09
  -4  -1   0   35.32    2.91
  -4   1   0   39.42    2.91
  -4   1   0   39.85    4.15
  -4   1   0   36.99    3.44
  -4   1   0   36.33    3.08
   4   1   0   41.89    3.15
  -4   1   0   34.02    2.88
   5  -1   0   16.51    2.09
  -5  -1   0   12.87    1.26
  -5  -1   0   15.03    1.25
  -5  -1   0   11.47    2.28
  -5  -1   0   13.85    2.52
   5  -1   0   13.72    1.56
  -5  -1   0   13.86    1.41
   5  -1   0   12.43    1.81
   5  -1   0   15.14    1.98
   5  -1   0   14.41    2.56
   5  -1   0   13.95    1.64
   5  -1   0   13.94    1.46
  -5  -1   0   14.17    1.63
   5  -1   0   11.49    1.97
  -5   1   0   13.83    1.75
   5   1   0   19.29    2.35
  -5   1   0   14.62    1.35
   5   1   0   14.71    1.50
   5   1   0   12.57    1.93
   5   1   0   13.75    1.69
   5   1   0   15.76    2.49
   5   1   0   14.83    1.84
   5   1   0   14.38    1.53
   5   1   0   14.96    1.95
  -5   1   0   10.46    2.29
   6  -1   0   13.54    1.52
  -6  -1   0   11.90    1.57
   6  -1   0   14.34    1.99
   6  -1   0   14.92    2.13
   6  -1   0    8.80    1.67
   6  -1   0   13.96    1.59
   6  -1   0   16.11    2.04
  -6  -1   0   12.26    1.31
  -6  -1   0   12.18    1.25
   6  -1   0   11.44    1.89
  -6   1   0   12.00    1.20
   6   1   0   11.42    1.60
   6   1   0   12.39    1.97
  -6   1   0   11.51    2.48
   6   1   0   11.76    1.41
   6   1   0   10.76    1.85
   6   1   0   12.76    1.76
  -6   1   0   12.69    1.37
   6   1   0   14.12    1.95
   6   1   0   14.15    2.34
   7  -1   0   17.71    2.18
   7  -1   0   17.35    2.16
   7  -1   0   15.81    2.07
   7  -1   0   13.03    1.71
   7  -1   0   14.52    2.29
  -7  -1   0   15.10    1.51
   7  -1   0   15.77    1.65
   7  -1   0   12.16    1.92
   7   1   0   15.08    1.94
   7   1   0   15.23    2.43
   7   1   0   15.24    1.68
  -7   1   0   14.13    1.52
   7   1   0   16.40    2.20
   7   1   0   15.59    1.79
   7   1   0   19.02    2.16
   8  -1   0    2.57    0.91
  -8  -1   0    4.02    0.85
   8  -1   0    5.28    1.29
   8  -1   0    3.94    1.69
   8   1   0    3.59    0.68
   8   1   0    3.80    1.06
   8   1   0    5.23    1.24
   0  -2   0  199.45   15.26
   0  -2   0  215.10   15.58
   0   2   0  210.82   15.61
   0   2   0  213.14   16.10
   1  -2   0 1000.00   71.38
  -1  -2   0  938.86   71.39
  -1  -2   0  985.27   70.99
  -1  -2   0  980.03   71.40
  -1  -2   0  930.03   71.00
   1   2   0  960.13   70.17
   1   2   0  914.93   70.75
   1   2   0  985.35   70.11
  -1   2   0  959.16   70.65
  -2  -2   0   60.37    4.55
  -2  -2   0   64.81    5.12
   2  -2   0   64.22    5.20
  -2  -2   0   57.87    4.57
  -2  -2   0   57.59    5.23
   2  -2   0   56.88    4.57
   2  -2   0   63.89    4.81
  -2  -2   0   58.42    4.52
   2   2   0   59.17    4.99
   2   2   0   71.77    4.90
   3  -2   0   24.66    2.94
  -3  -2   0   23.11    2.91
   3  -2   0   26.09    2.10
  -3  -2   0   24.65    2.07
  -3  -2   0   25.18    2.70
  -3  -2   0   24.93    1.96
  -3   2   0   25.59    2.74
   3   2   0   24.46    2.17
  -4  -2   0    5.46    0.89
  -4  -2   0    5.05    0.75
   4  -2   0    3.30    0.97
  -4  -2   0    4.91    0.61
  -4  -2   0    3.94    1.45
   4  -2   0    5.15    0.89
   4   2   0    4.49    0.90
   4   2   0    5.01    0.71
  -4   2   0    6.17    0.95
  -5  -2   0    3.28    1.00
   5  -2   0    2.34    1.69
  -5  -2   0    1.54    0.61
   5  -2   0    2.00    0.78
   5  -2   0    2.31    1.01
   5  -2   0    1.88    1.33
  -5  -2   0    0.57    1.62
   5  -2   0    2.26    0.72
   5  -2   0    3.33    1.02
   5  -2   0    1.68    1.20
  -5  -2   0    4.02    1.36
   5  -2   0    2.22    0.70
  -5  -2   0    2.26    0.71
   5  -2   0    0.63    1.51
   5   2   0    4.95    1.34
  -5   2   0    2.63    0.55
   5   2   0    2.47    0.86
   5   2   0    2.21    0.64
  -5   2   0    3.16    1.04
   5   2   0    2.99    1.22
   5   2   0    4.06    1.11
   5   2   0    4.20    1.39
  -6  -2   0   13.37    1.38
  -6  -2   0   13.12    1.34
   6  -2   0   15.93    2.15
  -6  -2   0   13.34    1.66
  -6  -2   0   10.96    2.24
   6  -2   0   15.41    2.06
   6  -2   0   13.55    1.62
  -6  -2   0   12.68    3.35
   6  -2   0   12.48    1.91
   6  -2   0   13.21    2.09
   6  -2   0   12.34    1.58
   6   2   0   16.08    1.69
   6   2   0   12.87    1.92
   6   2   0   11.84    2.00
  -6   2   0   12.76    1.52
  -6   2   0    9.79    1.26
   6   2   0   13.35    1.42
   6   2   0   13.26    1.89
   6   2   0   12.34    1.90
   6   2   0   17.54    2.04
  -7  -2   0    2.04    0.58
   7  -2   0    0.80    1.01
   7  -2   0    1.24    1.12
   7  -2   0    1.33    1.79
   7  -2   0    0.33    0.68
   7  -2   0    1.58    0.85
   7  -2   0    2.14    1.13
   7   2   0    3.96    1.70
   7   2   0    1.10    0.87
   7   2   0    0.81    0.96
   7   2   0    1.89    0.66
   7   2   0    1.57    0.77
  -8  -2   0   10.94    1.35
   8  -2   0    9.71    1.50
   8  -2   0   10.84    1.76
   8   2   0   10.02    1.91
   8   2   0   10.33    1.21
   8   2   0    8.69    1.41
   0  -3   0   -0.25    0.49
   0  -3   0   -0.17    0.33
   0   3   0    0.12    0.73
   0   3   0   -0.13    0.81
   0   3   0    0.19    0.28
  -1  -3   0   69.52    6.36
  -1  -3   0   81.01    5.80
  -1  -3   0   79.46    6.35
  -1  -3   0   77.00    5.80
   1  -3   0   79.69    6.39
   1   3   0   79.48    5.61
  -1   3   0   71.21    5.87
   1   3   0   76.81    5.66
   1   3   0   83.09    6.28
   1   3   0   75.72    6.59
  -1   3   0   70.30    5.58
  -1   3   0   70.55    5.56
   2  -3   0  251.23   19.55
  -2  -3   0  259.20   18.89
  -2  -3   0  250.26   18.90
  -2  -3   0  267.85   19.61
  -2  -3   0  251.96   18.85
  -2  -3   0  248.81   19.62
   2  -3   0  260.48   19.08
  -2   3   0  256.36   20.50
   2   3   0  273.66   20.92
   2   3   0  264.88   19.53
  -3  -3   0   33.30    3.54
  -3  -3   0   35.23    3.83
  -3  -3   0   33.57    2.73
  -3  -3   0   31.81    2.76
  -3  -3   0   35.29    2.68
   3  -3   0   34.40    3.78
  -4  -3   0   14.14    1.40
  -4  -3   0   16.01    1.56
  -4  -3   0   15.44    1.32
   4  -3   0   14.72    1.99
  -4  -3   0   14.63    1.29
   4  -3   0   13.04    1.43
  -4  -3   0   13.95    2.42
  -4  -3   0   14.55    3.11
  -4   3   0   14.38    1.56
   4   3   0   13.60    1.55
   4   3   0   15.87    1.69
   4   3   0   12.70    2.41
   4   3   0   13.10    1.30
   4   3   0   13.04    1.64
   5  -3   0   12.32    1.88
  -5  -3   0   13.07    1.67
   5  -3   0   12.70    1.54
  -5  -3   0   11.77    1.22
   5  -3   0   11.05    1.46
   5  -3   0    9.28    1.48
   5  -3   0   15.10    2.03
   5  -3   0   13.85    1.80
   5  -3   0   11.60    1.53
   5  -3   0   13.64    1.70
  -5  -3   0   12.13    1.43
  -5  -3   0   13.53    2.74
   5  -3   0    9.69    1.88
   5  -3   0   15.96    1.96
   5   3   0   13.55    1.78
   5   3   0   12.76    2.00
   5   3   0   10.42    1.73
   5   3   0   13.01    1.41
  -5   3   0   15.29    1.88
   5   3   0   11.86    1.99
   5   3   0   14.78    1.94
   5   3   0   13.70    1.63
   6  -3   0   22.94    2.69
   6  -3   0   21.79    2.06
  -6  -3   0   19.44    1.95
   6  -3   0   18.70    2.39
   6  -3   0   20.14    2.50
  -6  -3   0   21.61    2.20
   6  -3   0   20.58    2.21
   6  -3   0   21.82    3.25
   6   3   0   20.54    2.79
   6   3   0   19.79    2.51
   6   3   0   21.48    2.58
   6   3   0   23.53    2.47
   6   3   0   21.76    2.13
   6   3   0   20.70    2.50
  -7  -3   0    1.93    0.91
  -7  -3   0    2.20    0.59
   7  -3   0    1.77    1.75
   7  -3   0    2.20    1.07
   7  -3   0    1.38    1.21
  -7  -3   0    1.95    0.72
   7  -3   0    0.43    1.11
   7  -3   0    2.02    0.78
   7   3   0    0.53    0.75
   7   3   0    2.56    0.89
   7   3   0    1.15    0.63
   7   3   0    0.58    0.81
   7   3   0    1.30    1.03
   8  -3   0    8.17    1.50
  -8  -3   0   12.80    1.28
   8  -3   0   11.90    1.63
   8   3   0   11.86    1.32
   8   3   0   12.87    1.96
   8   3   0   12.35    1.63
   0  -4   0   21.78    2.68
   0  -4   0   20.73    1.75
   0  -4   0   22.81    1.82
   0   4   0   17.85    2.77
   0   4   0   19.64    1.63
   0   4   0   22.82    2.45
  -1  -4   0   96.53    7.42
  -1  -4   0  100.97    8.24
  -1  -4   0   93.45    7.47
  -1  -4   0  105.12    7.47
  -1  -4   0  103.60    8.18
  -1   4   0   99.31    8.11
   1   4   0  105.42    7.67
  -1   4   0   99.69    8.68
   1   4   0  104.09    7.71
   1   4   0  108.11    8.46
   1   4   0  101.09    8.85
  -2  -4   0   21.93    2.77
   2  -4   0   24.88    3.29
  -2  -4   0   24.59    3.57
  -2  -4   0   21.02    1.97
   2  -4   0   25.21    2.37
   2   4   0   23.30    1.99
   2   4   0   25.26    1.87
   2   4   0   23.49    3.55
  -2   4   0   20.35    2.22
  -2   4   0   20.25    1.75
  -2   4   0   22.81    1.73
  -2   4   0   22.23    3.23
   3  -4   0   20.98    2.47
  -3  -4   0   23.38    1.95
  -3  -4   0   21.17    1.83
  -3  -4   0   21.79    2.97
  -3  -4   0   26.33    2.36
  -3  -4   0   21.52    3.11
   3  -4   0   19.46    3.00
   3   4   0   22.30    2.05
   3   4   0   23.81    1.99
  -3   4   0   19.47    3.59
  -4  -4   0   50.36    3.92
  -4  -4   0   52.42    3.94
   4  -4   0   48.75    4.13
   4  -4   0   52.11    4.55
   4  -4   0   52.19    4.42
  -4  -4   0   53.36    4.17
   4  -4   0   47.48    4.00
  -4  -4   0   47.91    5.33
  -4  -4   0   53.33    4.11
   4  -4   0   57.23    5.18
  -4  -4   0   50.73    5.80
   4  -4   0   45.10    4.22
   4   4   0   45.81    3.92
   4   4   0   49.03    3.85
   4   4   0   47.54    3.69
   4   4   0   47.41    4.07
   4   4   0   47.40    3.92
  -4   4   0   40.62    6.08
   4   4   0   48.75    4.24
  -5  -4   0    0.29    1.50
   5  -4   0    2.60    1.08
  -5  -4   0    2.05    1.05
   5  -4   0    2.35    0.95
   5  -4   0    1.94    1.38
   5  -4   0    2.62    0.94
  -5  -4   0    0.70    0.51
   5  -4   0    1.40    1.64
  -5  -4   0    1.48    0.55
   5  -4   0    1.56    0.78
  -5  -4   0    0.51    2.05
   5  -4   0    1.41    1.24
   5  -4   0    0.70    0.77
   5  -4   0    1.46    1.23
  -5  -4   0    0.78    0.76
   5  -4   0    1.82    1.19
  -5  -4   0    1.21    0.72
   5   4   0    0.97    0.63
   5   4   0    1.15    0.81
   5   4   0    3.01    1.10
  -5   4   0    0.93    1.42
   5   4   0    1.73    1.32
   5   4   0    0.16    1.08
  -6  -4   0    4.65    0.83
   6  -4   0    4.24    1.66
  -6  -4   0    4.89    0.86
   6  -4   0    4.00    0.89
   6  -4   0    2.95    1.15
  -6  -4   0    5.04    1.32
   6  -4   0    5.01    1.35
   6  -4   0    6.61    1.50
   6  -4   0    6.22    1.88
  -6  -4   0    4.15    2.58
   6   4   0    4.68    0.88
   6   4   0    4.45    1.92
   6   4   0    4.29    1.09
   6   4   0    4.66    1.27
   6   4   0    3.36    1.02
   6   4   0    4.79    0.94
   6   4   0    4.31    0.70
   7  -4   0   11.93    1.99
  -7  -4   0    9.23    1.34
   7  -4   0    9.98    1.57
   7  -4   0   12.19    1.73
  -7  -4   0   10.34    1.25
  -7  -4   0    8.18    1.44
   7   4   0   11.79    1.52
   7   4   0    9.40    1.48
   7   4   0    8.28    1.31
   7   4   0    9.30    1.67
   7   4   0   13.52    1.57
  -8  -4   0    8.97    1.10
   8  -4   0    7.37    2.07
   8   4   0    9.69    1.39
   8   4   0   10.50    1.43
   8   4   0   10.86    1.20
   0  -5   0   -0.30    0.55
   0  -5   0   -0.01    0.52
   0  -5   0    0.42    0.79
   0  -5   0   -0.52    0.46
   0   5   0   -0.18    1.02
   0   5   0   -0.68    0.91
  -1  -5   0  112.65   10.12
  -1  -5   0  113.67    9.39
  -1  -5   0  118.22    8.51
   1  -5   0  113.40    9.45
  -1  -5   0  110.91    8.52
   1   5   0   79.18    9.25
  -1   5   0  109.16    9.11
  -1   5   0  111.27    8.36
   1   5   0  105.80    7.68
   1   5   0  103.24    7.65
  -1   5   0  102.88    7.61
  -2  -5   0   52.73    5.10
  -2  -5   0   55.34    4.06
  -2  -5   0   48.66    4.31
  -2  -5   0   61.49    4.25
   2  -5   0   48.69    4.46
  -2  -5   0   49.41    4.15
   2  -5   0   55.52    5.33
  -2  -5   0   52.56    5.31
   2   5   0   54.65    5.93
   2   5   0   54.03    3.91
  -2   5   0   46.94    3.76
  -2   5   0   45.34    3.87
  -2   5   0   51.34    4.41
  -2   5   0   47.09    3.80
   2   5   0   54.57    3.98
  -3  -5   0   49.55    3.81
  -3  -5   0   43.28    5.14
  -3  -5   0   49.29    3.68
  -3  -5   0   48.14    3.82
  -3  -5   0   47.15    3.68
  -3  -5   0   50.43    3.80
   3  -5   0   48.06    4.22
   3  -5   0   42.05    4.90
   3   5   0   45.47    3.63
   3   5   0   51.98    3.90
  -3   5   0   48.77    5.56
  -3   5   0   43.78    3.47
  -3   5   0   41.11    4.12
   4  -5   0    5.81    1.81
  -4  -5   0    2.87    1.74
  -4  -5   0    5.81    1.03
  -4  -5   0    5.16    1.10
  -4  -5   0    3.86    0.97
  -4  -5   0    4.75    0.94
   4  -5   0    4.74    0.92
   4  -5   0    4.70    1.17
   4  -5   0    6.40    1.53
   4  -5   0    5.25    1.45
   4   5   0    3.90    0.93
  -4   5   0    1.99    2.68
   4   5   0    4.46    0.85
   4   5   0    5.09    1.45
   4   5   0    4.66    0.89
   5  -5   0   68.61    5.67
  -5  -5   0   61.00    4.72
  -5  -5   0   65.77    6.75
   5  -5   0   53.33    4.89
   5  -5   0   51.37    4.77
  -5  -5   0   60.86    8.99
  -5  -5   0   64.47    5.11
   5  -5   0   61.79    6.20
   5  -5   0   59.10    5.07
  -5  -5   0   61.98    4.91
   5  -5   0   64.09    5.58
   5  -5   0   60.45    5.09
  -5  -5   0   59.39    4.71
   5  -5   0   63.12    5.23
  -5  -5   0   61.28    4.82
   5  -5   0   55.87    5.29
   5   5   0   58.93    5.20
   5   5   0   59.97    5.03
   5   5   0   60.98    4.77
   5   5   0   61.17    5.03
   5   5   0   59.75    5.01
  -6  -5   0    4.33    0.91
   6  -5   0    4.09    1.04
  -6  -5   0    4.52    1.60
  -6  -5   0    4.91    0.79
   6  -5   0    5.03    1.82
  -6  -5   0    2.49    2.52
   6  -5   0    9.28    2.21
   6  -5   0    4.72    2.64
  -6  -5   0    5.17    0.87
   6   5   0    4.24    0.85
   6   5   0    5.91    1.48
   6   5   0    4.88    1.24
   6   5   0    5.41    1.36
   6   5   0    5.15    0.89
   7  -5   0    0.32    1.87
  -7  -5   0    1.39    0.61
   7  -5   0    0.47    1.29
   7  -5   0   -0.73    2.28
   7  -5   0    1.36    1.16
   7   5   0    0.74    0.83
   7   5   0   -0.10    0.87
   7   5   0    0.33    0.62
   7   5   0    0.73    1.15
   7   5   0   -0.11    0.81
   0  -6   0    3.16    1.30
   0  -6   0    5.47    0.91
   0  -6   0    6.24    0.95
   0   6   0    3.62    0.65
   0   6   0    5.17    1.59
  -1  -6   0    0.23    1.38
  -1  -6   0    2.76    0.64
  -1  -6   0    0.61    0.62
  -1  -6   0    1.25    0.68
   1  -6   0    0.12    0.98
  -1  -6   0    1.32    0.47
   1  -6   0    1.25    0.62
  -1   6   0    0.78    1.16
   1   6   0    0.63    1.07
   1   6   0    1.25    0.46
  -1   6   0    0.81    0.39
   1   6   0    1.91    1.26
   1   6   0    0.60    0.43
  -2  -6   0   21.82    1.79
   2  -6   0   19.73    2.38
  -2  -6   0   21.05    3.26
  -2  -6   0   21.90    1.91
  -2  -6   0   21.58    1.94
  -2  -6   0   22.99    1.87
  -2  -6   0   22.18    3.46
   2  -6   0   22.94    1.97
  -2  -6   0   17.26    2.05
   2  -6   0   18.16    3.30
  -2   6   0   19.51    1.75
   2   6   0   21.44    1.90
   2   6   0   21.16    1.93
   2   6   0   21.96    1.73
   2   6   0   20.13    4.04
  -2   6   0   25.78    4.26
  -2   6   0   18.61    2.70
   2   6   0   22.20    1.90
   3  -6   0   14.00    2.25
  -3  -6   0   15.01    1.72
   3  -6   0   20.37    2.57
  -3  -6   0   15.58    1.68
  -3  -6   0   14.33    1.46
  -3  -6   0   14.02    1.69
  -3  -6   0   14.84    3.07
   3  -6   0    9.86    1.78
   3   6   0   12.60    1.46
  -3   6   0   13.55    1.26
  -3   6   0    8.44    2.75
   3   6   0   13.21    1.81
   3   6   0   13.56    1.60
  -4  -6   0    2.80    1.18
   4  -6   0    0.74    2.47
   4  -6   0    4.15    1.15
   4  -6   0    1.01    0.82
  -4  -6   0    1.93    0.58
  -4  -6   0    2.60    0.74
   4  -6   0    1.84    1.76
   4  -6   0    1.38    0.88
  -4  -6   0    2.40    0.88
   4  -6   0    4.58    0.98
  -4  -6   0    1.11    1.67
   4  -6   0    3.36    1.36
   4  -6   0   -0.03    1.71
  -4  -6   0    3.38    1.64
  -4   6   0    2.11    0.49
   4   6   0    0.21    0.89
   4   6   0    1.84    0.80
   4   6   0    3.72    1.51
   4   6   0    1.83    0.82
  -4   6   0    0.76    1.60
   5  -6   0   22.58    3.14
   5  -6   0   24.43    2.69
  -5  -6   0   19.44    2.76
   5  -6   0   22.55    3.17
   5  -6   0   21.45    2.21
  -5  -6   0   19.01    4.11
   5  -6   0   19.25    2.33
  -5  -6   0   23.49    2.14
   5  -6   0   22.69    2.86
   5  -6   0   21.52    2.54
  -5  -6   0   21.82    2.04
  -5  -6   0   23.91    2.49
  -5  -6   0   22.90    2.03
   5   6   0   21.62    2.23
   5   6   0   21.22    2.69
   5   6   0   20.53    2.36
   5   6   0   23.46    2.38
   5   6   0   26.11    2.21
   6  -6   0   18.69    2.51
  -6  -6   0   11.74    3.67
  -6  -6   0   15.51    1.69
   6  -6   0   21.83    3.28
  -6  -6   0   18.87    1.75
  -6  -6   0   17.98    1.86
   6  -6   0   17.05    2.44
   6  -6   0   17.76    2.26
   6  -6   0   15.51    2.08
   6   6   0   20.23    2.30
   6   6   0   20.11    3.09
   6   6   0   17.45    1.93
   6   6   0   17.23    1.82
  -7  -6   0    1.47    0.63
  -7  -6   0    0.58    0.62
  -7  -6   0    1.96    0.58
   7   6   0    0.72    1.06
   7   6   0    1.41    1.18
   7   6   0    1.85    0.73
   7   6   0    1.06    0.60
   0  -7   0   -2.69    1.91
   0  -7   0   -0.65    0.64
   0   7   0    0.41    0.47
   0   7   0    0.62    0.71
   0   7   0    0.07    1.39
   0   7   0    1.13    2.02
  -1  -7   0   67.79    5.30
  -1  -7   0   68.72    6.82
   1  -7   0   68.26    5.29
  -1  -7   0   67.98    5.35
  -1  -7   0   65.35    5.30
   1  -7   0   72.57    6.71
   1   7   0   69.86    7.05
   1   7   0   54.91    7.10
  -1   7   0   67.33    7.34
   1   7   0   63.88    4.95
   1   7   0   66.02    5.02
   1   7   0   67.70    5.07
  -1   7   0   61.60    4.96
   1   7   0   67.16    4.92
  -2  -7   0   27.15    3.93
  -2  -7   0   23.27    2.05
  -2  -7   0   23.00    2.10
   2  -7   0   20.46    2.01
   2  -7   0   18.87    2.67
   2  -7   0   22.40    2.46
  -2  -7   0   18.28    2.09
  -2  -7   0   21.16    1.81
   2  -7   0   21.94    3.22
   2  -7   0   19.89    2.24
  -2  -7   0   22.27    3.83
   2  -7   0   23.69    2.02
  -2  -7   0   21.83    1.88
  -2   7   0   20.54    3.20
  -2   7   0   26.44    5.22
   2   7   0   23.02    2.04
   2   7   0   21.38    4.42
   2   7   0   21.28    2.07
   2   7   0   23.09    1.84
   2   7   0   22.23    2.00
  -2   7   0   21.56    1.90
  -3  -7   0   60.85    4.67
   3  -7   0   46.37    6.61
   3  -7   0   63.84    5.08
   3  -7   0   59.13    4.96
  -3  -7   0   62.33    4.79
  -3  -7   0   68.37    5.69
  -3  -7   0   67.22    7.02
  -3  -7   0   53.29    6.51
   3  -7   0   58.55    4.73
   3  -7   0   65.24    5.59
   3  -7   0   57.95    4.86
  -3  -7   0   62.75    4.65
   3  -7   0   60.99    5.42
   3   7   0   64.44    4.81
   3   7   0   57.80    4.65
   3   7   0   54.66    4.78
  -3   7   0   53.50    5.71
   3   7   0   62.15    4.53
  -3   7   0   61.36    4.56
  -3   7   0   61.03   11.63
  -4  -7   0   30.58    2.57
  -4  -7   0   31.85    2.56
  -4  -7   0   31.22    2.98
   4  -7   0   26.24    2.87
  -4  -7   0   31.96    3.08
   4  -7   0   29.00    3.28
   4  -7   0   33.52    3.77
  -4  -7   0   28.75    2.68
  -4  -7   0   25.59    4.72
   4  -7   0   30.31    2.71
   4  -7   0   33.08    3.22
  -4   7   0   32.59    2.67
   4   7   0   31.93    2.87
   4   7   0   35.68    3.32
   4   7   0   30.28    2.97
   4   7   0   32.58    3.05
   4   7   0   34.52    3.79
  -5  -7   0   15.92    1.84
  -5  -7   0   19.08    2.56
   5  -7   0   15.06    3.02
   5  -7   0   19.11    2.30
   5  -7   0   20.29    2.34
   5  -7   0   17.21    2.38
  -5  -7   0   17.99    1.72
   5  -7   0   19.13    2.55
  -5  -7   0   14.10    3.59
   5  -7   0   18.60    2.02
   5  -7   0   16.17    2.15
   5   7   0   19.32    1.96
   5   7   0   17.06    2.71
   5   7   0   20.89    2.06
   5   7   0   19.30    2.34
   5   7   0   16.62    1.95
   6  -7   0   17.57    2.45
   6  -7   0   20.05    2.54
  -6  -7   0   17.73    2.26
  -6  -7   0   22.69    2.22
   6  -7   0   19.34    2.60
   6  -7   0   22.02    2.66
   6   7   0   22.06    2.10
   6   7   0   23.74    3.02
   6   7   0   19.41    2.70
   6   7   0   21.45    2.09
   6   7   0   28.91    2.65
  -7  -7   0    3.63    0.84
  -7  -7   0    3.73    1.27
  -7  -7   0    6.53    1.19
   7   7   0    4.82    0.79
   7   7   0    6.20    1.70
   7   7   0    7.08    1.26
   7   7   0    4.09    0.88
   0  -8   0    5.10    1.81
   0   8   0   11.07    1.41
   0   8   0   10.33    1.22
   0   8   0    6.37    2.18
   1  -8   0    5.90    1.03
  -1  -8   0    2.68    1.84
  -1  -8   0    7.35    1.72
   1  -8   0    5.86    1.11
  -1  -8   0    7.04    1.26
  -1  -8   0    3.91    1.57
   1  -8   0    2.96    1.70
  -1  -8   0    5.33    0.88
  -1   8   0    5.98    1.99
   1   8   0    5.85    0.88
   1   8   0    3.61    1.79
  -1   8   0    4.48    2.35
   1   8   0    5.93    0.96
   1   8   0    6.20    1.02
   1   8   0    2.37    1.96
   1   8   0    5.66    0.85
   2  -8   0   19.48    3.19
  -2  -8   0   24.07    2.64
  -2  -8   0   23.97    2.07
  -2  -8   0   22.58    2.68
   2  -8   0   21.25    2.01
   2  -8   0   22.56    2.50
  -2  -8   0   17.69    1.94
   2  -8   0   21.85    2.60
  -2  -8   0   20.23    2.44
   2  -8   0   23.18    2.34
  -2   8   0   16.25    3.27
   2   8   0   24.51    1.98
   2   8   0   22.43    1.82
   2   8   0   20.52    2.28
  -2   8   0   17.47    4.51
   2   8   0   22.01    4.98
   2   8   0   23.79    3.02
   2   8   0   21.37    2.02
  -2   8   0   22.80    1.96
  -3  -8   0   34.78    2.79
   3  -8   0   35.87    4.02
  -3  -8   0   27.88    3.32
   3  -8   0   33.65    3.15
  -3  -8   0   35.80    2.84
   3  -8   0   37.88    3.55
  -3  -8   0   31.87    6.01
  -3  -8   0   35.46    3.03
   3  -8   0   36.78    3.36
   3  -8   0   27.55    6.26
   3  -8   0   42.90    4.22
  -3  -8   0   33.10    4.11
  -3  -8   0   33.75    3.25
   3   8   0   33.03    3.12
   3   8   0   33.40    2.96
   3   8   0   32.78    2.86
  -3   8   0   34.61    2.80
   3   8   0   33.30    2.73
   4  -8   0    2.11    1.28
   4  -8   0    0.66    1.64
  -4  -8   0    1.71    0.86
  -4  -8   0    1.71    1.67
   4  -8   0    2.09    1.39
  -4  -8   0   -1.52    2.28
  -4  -8   0    5.06    1.88
   4  -8   0    2.15    1.85
   4  -8   0    1.23    0.95
   4  -8   0   -0.82    1.51
  -4  -8   0    2.16    0.76
  -4   8   0   -1.67    1.97
   4   8   0    1.44    0.87
   4   8   0    1.03    0.68
   4   8   0   -1.22    0.89
   5  -8   0    5.72    2.03
   5  -8   0    8.48    1.53
  -5  -8   0    9.72    1.19
   5  -8   0    8.06    1.63
  -5  -8   0    9.18    1.41
   5  -8   0    6.01    2.20
  -5  -8   0    4.44    2.40
  -5  -8   0    3.73    3.05
  -5  -8   0    9.31    1.24
   5   8   0    8.10    1.33
   5   8   0    9.44    1.42
   6  -8   0    8.71    1.49
  -6  -8   0    6.48    1.04
  -6  -8   0    6.52    1.02
   6  -8   0    8.70    1.61
  -6  -8   0    5.33    0.92
   6  -8   0   11.77    2.58
   6   8   0    6.35    0.89
   6   8   0    4.28    0.77
  -7  -8   0   26.55    2.32
   7   8   0   23.64    2.16
   7   8   0   26.41    2.09
   0  -9   0    0.88    0.97
   0  -9   0   -1.74    0.91
   0  -9   0   -0.54    0.84
   0  -9   0    2.78    1.72
   0  -9   0   -1.18    1.83
   0   9   0   -0.15    2.24
   0   9   0    0.15    0.52
   0   9   0   -0.10    0.76
   0   9   0    0.16    2.61
   0   9   0    0.04    0.77
   0   9   0    0.37    0.72
   1  -9   0   12.95    1.53
  -1  -9   0   11.61    1.93
   1  -9   0   11.89    1.82
   1  -9   0   11.63    1.66
  -1  -9   0   12.89    1.59
   1  -9   0   11.44    1.99
   1  -9   0    9.66    1.83
   1   9   0   11.97    1.58
  -1   9   0   12.77    1.55
  -1   9   0   11.45    1.32
  -1   9   0   11.58    1.48
   1   9   0   13.79    1.76
   1   9   0   11.15    1.27
  -1   9   0   13.17    1.58
  -1   9   0   11.20    3.08
   1   9   0   11.27    1.45
  -2  -9   0   33.09    5.82
   2  -9   0   32.63    4.62
   2  -9   0   40.22    4.24
  -2  -9   0   40.62    3.34
   2  -9   0   44.73    3.28
  -2  -9   0   34.46    3.69
  -2  -9   0   45.25    3.70
  -2   9   0   43.36    5.27
  -2   9   0   41.56    3.28
   2   9   0   34.58    3.70
   2   9   0   36.40    4.01
  -2   9   0   39.15    3.34
   2   9   0   40.25    3.32
   2   9   0   40.77    3.10
  -2   9   0   38.09    3.17
   3  -9   0    9.01    2.06
  -3  -9   0    9.48    1.95
  -3  -9   0    6.73    1.22
  -3  -9   0    8.72    1.26
   3  -9   0    8.72    1.57
   3  -9   0    7.67    1.52
  -3  -9   0    8.97    1.93
   3  -9   0   10.93    2.34
  -3  -9   0    3.85    3.67
   3  -9   0    7.59    1.43
   3   9   0    8.05    1.06
   3   9   0   13.31    1.89
  -3   9   0   10.00    1.49
   3   9   0    8.52    1.38
   3   9   0   11.15    2.23
  -3   9   0    9.82    1.28
  -4  -9   0    1.08    0.68
  -4  -9   0    0.07    0.76
   4  -9   0    0.40    1.65
   4  -9   0   -1.27    1.67
   4  -9   0    0.77    1.19
  -4  -9   0    3.88    4.08
   4  -9   0   -0.09    0.96
   4  -9   0    0.91    1.24
   4   9   0    0.45    0.93
  -4   9   0    1.14    0.95
   4   9   0   -0.12    0.68
   5  -9   0    2.47    1.69
   5  -9   0    3.61    2.16
   5  -9   0    2.88    1.24
   5  -9   0    3.44    1.11
   5   9   0    2.36    0.79
  -6  -9   0    5.33    1.00
   6  -9   0    3.70    1.49
   6   9   0    0.54    0.67
   0 -10   0    7.02    1.84
   0 -10   0    4.66    1.10
   0 -10   0    4.85    1.30
   0 -10   0    2.86    2.28
   0  10   0    4.97    0.93
   0  10   0    2.89    1.13
   0  10   0    1.49    2.60
   0  10   0    4.47    1.03
  -1 -10   0   78.15    5.91
   1 -10   0   76.11    6.12
   1 -10   0   70.28    7.14
  -1 -10   0   60.62    8.82
  -1 -10   0   79.15    6.27
   1 -10   0   76.72    5.88
  -1  10   0   83.20   15.40
  -1  10   0   78.22    5.91
  -1  10   0   66.28    8.01
   1  10   0   72.21    5.90
   1  10   0   74.70    6.11
   1  10   0   75.99    5.78
  -1  10   0   85.17    6.06
  -1  10   0   72.71    5.90
  -1  10   0   74.76    5.80
   2 -10   0   24.59    3.51
   2 -10   0   25.70    3.32
   2 -10   0   25.48    2.37
  -2 -10   0   24.46    2.48
   2 -10   0   26.46    2.95
   2 -10   0   24.62    2.78
  -2 -10   0   26.77    2.80
   2  10   0   25.25    3.98
  -2  10   0   25.72    2.58
  -2  10   0   26.05    2.31
   2  10   0   25.67    2.29
   2  10   0   25.77    2.21
   3 -10   0    5.98    1.37
   3 -10   0    2.55    1.28
  -3 -10   0    3.70    0.93
   3 -10   0    3.21    1.78
   3 -10   0    3.58    1.34
  -3 -10   0    2.78    1.47
   3  10   0    3.01    0.81
  -3  10   0    5.02    1.24
   3  10   0    3.78    0.76
   3  10   0    5.27    1.44
   4 -10   0    5.44    1.75
  -4 -10   0    6.82    2.35
   4 -10   0    5.15    2.08
  -4 -10   0    4.32    1.07
   4 -10   0    7.14    1.40
   4  10   0    4.80    1.03
   4  10   0    7.21    1.81
   5 -10   0    1.93    1.18
   5 -10   0    3.56    1.96
   5 -10   0    3.52    1.21
  -5 -10   0    2.50    0.81
   5 -10   0    1.89    1.25
   5  10   0    3.87    0.99
   5  10   0    2.70    0.80
  -6 -10   0   10.01    1.37
   6 -10   0   12.95    1.95
   6  10   0   11.02    1.12
   6  10   0   10.16    1.37
   0 -11   0    0.14    0.97
   0 -11   0    0.43    1.38
   0 -11   0    1.72    3.95
   0 -11   0   -0.22    0.93
   0  11   0   -0.39    0.81
   0  11   0   -0.91    0.74
   0  11   0   -0.37    0.60
   0  11   0   -0.54    1.36
   1 -11   0   34.36    3.12
   1 -11   0   37.63    3.54
   1 -11   0   37.30    3.48
  -1 -11   0   34.70    3.29
   1 -11   0   34.09    3.08
  -1 -11   0   35.38    3.15
   1 -11   0   34.98    3.57
   1 -11   0   26.86    4.08
  -1  11   0   35.74    2.96
  -1  11   0   35.45    3.01
  -1  11   0   32.14    2.82
  -1  11   0   33.05    5.93
   1  11   0   29.50    3.74
   1  11   0   35.06    2.86
   1  11   0   32.44    2.95
  -1  11   0   33.13    3.42
   2 -11   0    2.77    1.45
   2 -11   0    2.00    1.79
  -2 -11   0    1.71    0.95
   2 -11   0    1.45    1.20
   2 -11   0    2.52    0.84
  -2 -11   0    2.95    1.24
  -2  11   0    3.20    1.22
   2  11   0    1.66    0.70
  -2  11   0    2.13    1.03
  -2  11   0    2.44    0.73
  -2  11   0    1.81    3.04
  -2  11   0    2.97    1.43
   2  11   0    1.83    0.78
  -3 -11   0    2.52    1.48
   3 -11   0    0.88    1.66
   3 -11   0    1.27    1.63
  -3 -11   0    0.75    0.82
   3 -11   0   -4.10    2.89
   3  11   0    0.70    0.68
  -3  11   0    1.22    0.69
   3  11   0    0.69    0.67
  -3  11   0    4.25    1.47
   3  11   0   -2.12    1.32
   4 -11   0    8.79    1.43
   4 -11   0    7.05    1.35
   4 -11   0    6.75    1.40
   4 -11   0    6.50    1.75
  -4 -11   0    5.07    3.78
   4  11   0   11.89    1.54
   4  11   0    7.47    1.40
  -4  11   0   11.57    1.39
   5 -11   0    0.35    1.87
  -5 -11   0    4.90    1.16
   5 -11   0    4.60    1.53
   5  11   0    5.75    1.61
   5  11   0    4.69    0.99
   0 -12   0   48.10    4.14
   0 -12   0   49.76    4.14
   0 -12   0   48.87    4.36
   0  12   0   44.85    3.78
   0  12   0   46.29    3.63
   0  12   0   42.67    3.58
  -1 -12   0   11.86    1.74
   1 -12   0    9.66    2.51
   1 -12   0   13.29    2.22
  -1 -12   0   14.09    1.86
   1 -12   0   14.85    2.77
  -1 -12   0   17.98    2.83
   1  12   0   12.81    1.37
  -1  12   0   10.83    1.43
   1  12   0   11.44    1.47
   1  12   0   11.80    1.58
  -2 -12   0   30.36    3.09
   2 -12   0   31.82    5.01
   2 -12   0   25.12    3.01
   2 -12   0   29.91    2.99
  -2 -12   0   34.06    2.94
   2 -12   0   30.47    3.24
   2  12   0   33.38    2.73
  -2  12   0   31.44    3.32
  -2  12   0   31.76    2.99
   2  12   0   28.82    2.94
  -2  12   0   37.84    3.29
   2  12   0   37.57    4.13
   3 -12   0    1.29    1.04
  -3 -12   0    0.11    0.87
   3 -12   0    1.16    1.22
  -3 -12   0    1.04    1.28
   3 -12   0    1.74    1.50
  -3  12   0   -0.41    1.16
   3  12   0   -3.25    2.04
  -3  12   0   -0.71    0.69
   3  12   0   -0.92    0.79
  -4 -12   0    3.11    0.90
  -4 -12   0    6.50    1.85
   4 -12   0    2.50    1.37
   4 -12   0    1.34    1.52
   4  12   0    3.48    1.19
   4  12   0    5.21    1.06
  -4  12   0    2.74    0.65
   0 -13   0   -0.33    0.99
   0 -13   0   -0.73    1.18
   0 -13   0   -0.24    0.86
   0  13   0    1.68    0.86
   0  13   0    0.74    0.65
   0  13   0   -0.13    0.66
  -1 -13   0    3.54    1.06
  -1 -13   0    2.84    1.23
   1 -13   0    2.52    1.12
   1 -13   0    3.46    0.91
  -1 -13   0    4.33    1.62
  -1  13   0    3.15    0.82
  -1  13   0    2.42    0.69
   1  13   0    2.95    0.66
  -1  13   0    4.37    0.93
   1  13   0    1.52    0.65
   1  13   0    2.08    0.90
  -2 -13   0   -0.27    0.95
   2 -13   0    0.42    0.98
  -2 -13   0    0.75    1.05
   2 -13   0   -0.82    1.91
  -2 -13   0    0.47    1.98
  -2  13   0    0.21    0.62
   2  13   0    0.02    0.60
   2  13   0    1.41    3.00
   2  13   0    1.40    0.85
  -3 -13   0    3.13    1.16
  -3 -13   0    2.67    0.91
   3 -13   0    1.71    0.91
   3 -13   0    0.44    1.08
  -3  13   0    1.23    0.93
   3  13   0    3.90    1.77
   3  13   0    1.56    0.99
   0 -14   0    5.83    1.49
   0 -14   0    5.21    0.95
   0  14   0    4.58    1.01
   0  14   0    4.35    0.73
   0  14   0    4.26    0.77
   1 -14   0   15.22    2.30
  -1 -14   0   18.63    1.90
  -1 -14   0   15.87    2.30
   1 -14   0   15.91    2.35
  -1 -14   0   14.16    1.90
  -1  14   0   11.80    1.91
   1  14   0   15.11    1.37
  -1  14   0   13.55    1.45
  -2 -14   0    3.38    0.93
  -2 -14   0    2.44    0.96
   2 -14   0    1.15    1.01
   2 -14   0    1.66    1.18
   2  14   0    2.39    0.79
  -2  14   0    1.61    0.58
  -2  14   0    1.89    0.66
   2  14   0    2.82    1.03
   8   0  -1    8.06    1.43
   8   0  -1    4.97    0.90
   8   0  -1    7.27    0.94
   8   0  -1    8.38    1.45
   7   0  -1   14.15    1.68
  -7   0   1   13.65    1.45
   7   0  -1   12.74    2.21
   7   0  -1   15.98    1.97
   7   0  -1   14.33    1.51
   7   0  -1   11.93    2.06
  -7   0   1   14.98    1.75
   6   0  -1   24.02    2.51
  -6   0   1   21.84    1.93
   6   0  -1   23.42    2.35
   6   0  -1   21.78    2.36
  -6   0   1   24.33    2.19
   6   0  -1   17.24    2.76
   6   0  -1   23.65    2.04
   6   0  -1   26.08    2.68
  -6   0   1   20.05    3.32
   6   0  -1   23.56    2.19
  -5   0   1   61.16    5.04
   5   0  -1   73.12    5.51
   5   0  -1   62.07    5.17
  -5   0   1   68.88    6.16
   5   0  -1   65.99    5.32
   5   0  -1   68.62    5.39
  -5   0   1   67.05    5.13
  -5   0   1   73.05    8.37
   5   0  -1   72.26    5.44
   5   0  -1   63.45    5.13
  -5   0   1   64.95    5.24
  -4   0   1   11.21    1.16
  -4   0   1    9.93    0.93
  -4   0   1   10.98    1.04
  -4   0   1   13.98    2.39
  -3   0   1   26.02    2.96
   3   0  -1   29.20    2.27
  -3   0   1   24.34    2.06
  -2   0   1  205.09   14.75
   2   0  -1  186.40   14.84
  -2   0   1  197.05   15.41
   2   0  -1  208.65   15.51
  -2   0   1  201.69   14.75
  -2   0   1  203.68   14.77
   1   0  -1   47.17    3.99
   1   0  -1   41.08    3.57
  -1   0   1   51.52    3.73
  -1   0   1   49.81    3.50
   0   0  -1  282.38   19.89
   0   0   1  281.78   19.76
   0   0  -1  273.58   19.76
   0   0   1  237.81   19.76
  -1   0  -1   47.96    3.87
  -1   0  -1   52.04    3.88
   1   0   1   53.58    3.94
   1   0   1   55.61    4.07
   1   0   1   50.10    3.85
   1   0   1   54.00    4.02
  -2   0  -1  222.98   16.18
  -2   0  -1  195.27   15.82
   2   0   1  216.68   15.93
  -2   0  -1  243.78   15.90
  -2   0  -1  207.00   16.42
   2   0   1  204.53   16.06
  -3   0  -1   23.85    2.05
  -3   0  -1   23.87    1.90
   3   0   1   22.06    2.08
  -3   0  -1   26.54    2.91
  -4   0  -1    6.44    1.53
  -4   0  -1   10.75    1.27
   4   0   1   11.22    1.77
  -4   0  -1    9.04    0.96
  -4   0  -1    9.61    0.82
   5   0   1   48.89    3.68
  -5   0  -1   50.16    3.62
  -5   0  -1   50.89    3.51
   5   0   1   46.22    4.20
  -5   0  -1   48.49    4.86
   5   0   1   44.93    3.75
   5   0   1   36.62    3.84
   5   0   1   39.61    3.93
  -6   0  -1   20.67    1.80
   6   0   1   17.11    2.39
   6   0   1   20.54    2.94
   6   0   1   19.14    2.44
   6   0   1   19.43    2.70
   6   0   1   20.91    2.04
  -6   0  -1   21.03    1.84
   6   0   1   27.13    2.63
  -6   0  -1   19.91    3.00
   6   0   1   22.87    2.25
  -6   0  -1   21.76    2.05
  -7   0  -1   11.85    1.19
   7   0   1   12.17    1.88
   7   0   1    9.30    1.92
   7   0   1   10.11    1.91
   7   0   1   10.85    1.85
   7   0   1   12.14    1.57
   7   0   1    7.94    1.54
  -7   0  -1   14.52    1.46
   8   0   1    4.77    1.11
   8   0   1    6.10    1.46
   8  -1  -1    9.67    1.48
   8  -1  -1    7.31    1.12
   8  -1  -1    8.15    1.43
   8  -1  -1    5.88    0.80
   8   1  -1    7.21    1.20
   8   1  -1    9.10    1.37
   8   1  -1    9.57    1.06
   8   1  -1   10.63    1.56
   7  -1  -1    6.79    1.51
   7  -1  -1    6.35    0.97
   7  -1  -1    4.66    1.26
  -7  -1   1    7.43    0.91
   7  -1  -1    9.28    3.02
  -7  -1   1    7.79    1.23
   7  -1  -1    7.38    1.91
   7  -1  -1    6.44    0.96
   7   1  -1    6.65    1.44
   7   1  -1    7.34    1.57
  -7   1   1    7.21    0.93
   7   1  -1    6.79    1.43
   7   1  -1    6.37    1.01
   7   1  -1    6.64    0.98
   6  -1  -1   18.30    2.45
  -6  -1   1   12.95    1.75
   6  -1  -1   15.36    2.75
   6  -1  -1   15.31    1.72
   6  -1  -1   14.53    2.37
  -6  -1   1   14.23    1.46
   6  -1  -1   13.85    2.12
  -6  -1   1   12.66    2.87
   6  -1  -1   15.30    1.78
   6  -1  -1   13.98    1.58
   6  -1  -1   14.55    1.94
   6   1  -1   14.19    1.46
  -6   1   1   17.48    3.62
   6   1  -1   13.65    1.90
   6   1  -1   12.75    1.89
   6   1  -1   14.08    2.06
  -6   1   1   11.45    1.32
  -6   1   1   13.92    1.59
   6   1  -1   14.20    1.76
   6   1  -1   12.34    2.01
   6   1  -1   14.26    1.67
   5  -1  -1   14.74    1.45
   5  -1  -1   12.73    1.68
  -5  -1   1   17.81    1.75
  -5  -1   1   11.29    2.51
   5  -1  -1   16.03    1.56
  -5  -1   1   16.68    1.35
   5  -1  -1   15.75    1.95
  -5  -1   1   15.10    1.33
  -5  -1   1   15.56    1.48
   5  -1  -1   12.74    1.76
  -5  -1   1   13.29    2.58
   5  -1  -1   15.97    1.68
   5  -1  -1   13.25    1.84
   5   1  -1   13.62    1.89
   5   1  -1   15.27    1.76
  -5   1   1   15.13    1.73
   5   1  -1   14.53    1.85
   5   1  -1   15.10    2.17
   5   1  -1   19.02    2.17
   5   1  -1   11.77    1.85
   5   1  -1   17.32    1.54
  -5   1   1   14.41    2.32
  -5   1   1   15.60    1.40
   5   1  -1   14.93    1.54
  -4  -1   1   42.05    4.58
   4  -1  -1   40.58    3.36
  -4  -1   1   42.46    3.99
  -4  -1   1   38.18    3.17
  -4  -1   1   40.64    3.22
  -4   1   1   38.59    3.09
  -4   1   1   40.33    4.34
  -4   1   1   39.93    2.98
  -4   1   1   37.83    3.01
  -3  -1   1   26.77    3.05
  -3  -1   1   28.03    2.13
   3  -1  -1   26.29    2.45
   3  -1  -1   24.80    2.23
  -3  -1   1   26.50    2.11
   3  -1  -1   27.39    3.52
  -3   1   1   26.39    2.03
  -3   1   1   28.46    2.14
  -3   1   1   29.90    2.05
  -3   1   1   22.80    2.92
   3   1  -1   26.29    2.32
   2  -1  -1  334.37   23.79
   2  -1  -1  325.98   23.15
  -2  -1   1  304.36   23.00
   2  -1  -1  297.13   23.05
  -2  -1   1  300.92   23.65
  -2  -1   1  312.29   22.99
  -2   1   1  303.97   22.48
   2   1  -1  307.35   22.59
  -1  -1   1  198.95   16.18
  -1  -1   1  207.24   15.58
  -1  -1   1  210.44   15.57
   1  -1  -1  219.62   16.04
   1  -1  -1  232.67   15.65
  -1  -1   1  200.46   15.96
   1   1  -1  208.36   15.23
   1   1  -1  217.89   15.65
  -1   1   1  193.98   15.19
   1   1  -1  198.15   15.21
  -1   1   1  218.86   15.37
  -1   1   1  204.02   15.19
   0  -1   1  407.97   29.34
   0  -1   1  394.71   29.51
   0  -1  -1  389.36   29.34
   0  -1  -1  381.79   29.33
   0  -1  -1  423.73   29.60
   0   1   1  441.96   31.47
   0   1  -1  402.83   31.47
   0   1  -1  426.78   31.71
   0   1   1  448.39   31.77
   0   1  -1  437.38   31.84
   0   1   1  414.29   31.47
   1  -1   1  195.11   14.76
  -1  -1  -1  209.30   14.94
   1  -1   1  199.48   14.77
   1  -1   1  191.21   14.67
  -1  -1  -1  198.25   14.65
  -1  -1  -1  200.35   14.68
   1   1   1  187.19   15.19
  -1   1  -1  219.58   15.13
   1   1   1  210.76   15.15
  -2  -1  -1  298.99   22.66
  -2  -1  -1  319.94   23.12
   2  -1   1  314.85   22.89
   2  -1   1  289.10   22.71
  -2  -1  -1  327.23   23.16
  -2  -1  -1  297.55   22.71
  -2   1  -1  319.06   22.17
  -2   1  -1  274.02   22.12
  -2   1  -1  300.19   21.89
  -2   1  -1  305.69   21.89
   2   1   1  291.33   22.02
  -3  -1  -1   26.95    2.46
  -3  -1  -1   29.77    2.38
  -3  -1  -1   27.37    2.30
  -3  -1  -1   31.77    3.14
  -3  -1  -1   35.23    3.12
  -3   1  -1   28.92    2.68
  -3   1  -1   26.57    2.10
  -3   1  -1   25.77    2.13
   3   1   1   29.71    2.37
  -3   1  -1   26.79    2.54
  -4  -1  -1   35.28    2.67
  -4  -1  -1   34.10    3.99
  -4  -1  -1   36.95    2.90
   4  -1   1   34.85    3.17
   4  -1   1   33.88    3.32
  -4  -1  -1   33.59    2.74
  -4  -1  -1   32.04    3.56
  -4   1  -1   41.79    2.95
  -4   1  -1   31.61    3.96
   4   1   1   32.90    2.98
  -4   1  -1   34.09    2.72
  -4   1  -1   34.36    3.37
  -4   1  -1   35.81    2.95
   5  -1   1   18.16    3.03
  -5  -1  -1   17.26    1.49
  -5  -1  -1   16.58    1.87
  -5  -1  -1   15.71    1.48
   5  -1   1   17.19    1.85
   5  -1   1   19.75    2.03
  -5  -1  -1   13.93    2.71
  -5  -1  -1   18.44    1.69
   5  -1   1   14.39    2.05
   5  -1   1   16.86    1.69
   5  -1   1   18.35    2.18
   5  -1   1   19.78    2.67
  -5   1  -1   18.18    1.56
   5   1   1   15.35    1.81
   5   1   1   16.65    1.73
  -5   1  -1   14.80    2.69
   5   1   1   21.50    2.13
   5   1   1   20.09    2.00
  -5   1  -1   14.66    1.40
   5   1   1   17.63    2.09
  -5   1  -1   17.19    1.90
   5   1   1   17.77    2.48
   5   1   1   15.63    1.70
   5   1   1   18.28    1.97
   6  -1   1   13.17    2.14
   6  -1   1   12.98    1.75
  -6  -1  -1    9.36    2.85
  -6  -1  -1   12.58    2.15
   6  -1   1   12.45    2.07
   6  -1   1   12.75    1.83
  -6  -1  -1   13.88    1.61
   6  -1   1   14.14    1.76
   6  -1   1   15.04    2.08
   6  -1   1   12.10    1.59
  -6  -1  -1   13.39    1.34
  -6   1  -1   14.39    1.27
   6   1   1   14.00    1.82
  -6   1  -1   12.09    1.54
   6   1   1   15.64    2.04
   6   1   1   11.00    1.86
   6   1   1   15.29    1.89
  -6   1  -1   10.71    2.20
   6   1   1   12.16    2.22
   6   1   1   12.08    1.98
   6   1   1   14.83    1.55
   7  -1   1    4.19    1.25
   7  -1   1    4.34    1.54
   7  -1   1    3.73    1.20
   7  -1   1    3.86    1.17
   7  -1   1    5.83    0.90
   7   1   1    4.58    1.08
   7   1   1    4.56    1.20
   7   1   1    2.96    1.15
   7   1   1    3.63    1.16
   7   1   1    5.94    1.38
   7   1   1    3.68    1.09
  -7   1  -1    3.91    0.65
  -8  -1  -1   10.01    1.28
   8  -1   1    7.77    1.46
   8  -1   1    6.81    2.46
   8   1   1    8.66    1.51
   8   1   1    5.32    1.10
   8   1   1    6.20    0.94
  -8  -2   1    5.92    0.87
   8  -2  -1    7.24    1.31
   8  -2  -1    5.02    0.78
   8  -2  -1    5.49    1.03
   8   2  -1    7.28    1.01
   8   2  -1    7.11    1.27
   8   2  -1    6.74    0.87
   8   2  -1    7.70    1.41
  -7  -2   1    4.22    0.70
   7  -2  -1    3.27    0.82
   7  -2  -1    4.74    1.30
   7  -2  -1   -0.86    2.52
   7  -2  -1    1.58    0.79
   7  -2  -1    3.50    1.32
  -7  -2   1    2.60    0.92
   7   2  -1    3.08    1.22
   7   2  -1    4.24    1.24
   7   2  -1    3.78    0.87
   7   2  -1    2.52    0.72
   7   2  -1    4.49    1.08
   6  -2  -1    8.17    1.43
  -6  -2   1   12.88    1.53
   6  -2  -1   13.49    1.67
   6  -2  -1    9.76    1.20
   6  -2  -1    9.84    1.90
   6  -2  -1   10.20    1.25
   6  -2  -1   10.52    1.58
  -6  -2   1    9.22    1.21
   6  -2  -1   11.22    1.63
  -6  -2   1    9.48    1.25
  -6  -2   1    9.36    2.91
   6  -2  -1   10.51    2.29
   6   2  -1   10.83    1.78
   6   2  -1   11.35    1.94
   6   2  -1    9.76    1.61
   6   2  -1   11.71    2.03
   6   2  -1   10.17    1.33
  -6   2   1   10.81    1.32
   6   2  -1   11.78    1.32
   6   2  -1   11.33    1.60
  -5  -2   1    9.84    1.19
   5  -2  -1    8.96    1.23
   5  -2  -1    8.79    1.32
   5  -2  -1   11.80    1.68
  -5  -2   1   10.06    1.26
   5  -2  -1   10.44    1.30
  -5  -2   1   12.59    1.47
   5  -2  -1    9.68    1.30
   5  -2  -1   12.67    2.29
   5  -2  -1    9.07    1.63
  -5  -2   1    8.29    2.40
  -5  -2   1    8.74    1.04
  -5  -2   1   13.92    2.63
   5  -2  -1   10.28    1.46
   5   2  -1    9.15    1.49
   5   2  -1    9.82    1.23
   5   2  -1    9.23    1.31
  -5   2   1   12.40    2.30
  -5   2   1   10.80    1.60
   5   2  -1   11.94    1.93
   5   2  -1    9.97    1.67
   5   2  -1   12.90    1.56
  -5   2   1    9.62    1.08
   5   2  -1   10.69    1.71
  -4  -2   1   60.00    4.53
   4  -2  -1   54.88    4.34
  -4  -2   1   53.80    5.69
  -4  -2   1   47.44    4.22
   4  -2  -1   56.10    4.68
  -4  -2   1   59.33    4.28
  -4  -2   1   52.59    4.17
  -4   2   1   45.71    5.12
   4   2  -1   51.73    4.08
   4   2  -1   48.04    3.89
  -4   2   1   53.55    3.90
   3  -2  -1  106.90    8.52
  -3  -2   1  113.00    8.49
  -3  -2   1  121.73    9.60
  -3  -2   1  121.39    9.25
   3  -2  -1   99.17    9.64
  -3  -2   1  115.57    8.43
   3  -2  -1  116.69    8.73
   3   2  -1  105.66    7.96
  -3   2   1  103.44    7.82
  -2  -2   1   77.82    5.56
  -2  -2   1   72.88    5.52
   2  -2  -1   65.01    5.56
  -2  -2   1   70.47    6.30
   2  -2  -1   81.87    5.76
  -2  -2   1   73.45    5.55
   2  -2  -1   77.42    6.41
   2   2  -1   84.71    6.76
   2   2  -1   66.14    5.69
  -1  -2   1  273.10   21.45
  -1  -2   1  289.62   20.96
  -1  -2   1  276.23   20.95
   1  -2  -1  299.44   21.53
   1   2  -1  281.29   21.06
  -1   2   1  261.39   20.38
  -1   2   1  276.25   20.38
   1   2  -1  290.94   20.42
   1   2  -1  298.70   20.49
  -1   2   1  300.92   20.78
  -1   2   1  264.34   20.40
   1   2  -1  246.02   20.46
   0  -2   1  277.66   20.68
   0  -2  -1  280.73   20.39
   0  -2  -1  253.31   20.39
   0  -2   1  283.66   20.43
   0  -2  -1  290.95   20.83
   0   2  -1  264.04   20.51
   0   2   1  274.14   20.43
   0   2   1  275.37   19.95
   0   2  -1  276.55   19.98
   0   2   1  267.56   19.96
   0   2  -1  270.18   19.96
  -1  -2  -1  339.41   24.17
   1  -2   1  319.12   23.87
  -1  -2  -1  302.04   24.06
   1  -2   1  324.48   23.83
   1   2   1  294.19   20.72
   1   2   1  278.40   21.55
   1   2   1  298.95   20.76
  -1   2  -1  254.40   20.89
  -2  -2  -1   94.56    7.01
   2  -2   1   90.83    6.85
  -2  -2  -1   84.01    6.99
   2  -2   1   82.65    6.38
  -2  -2  -1   83.83    6.36
  -2  -2  -1   81.93    6.34
   2  -2   1   84.70    6.62
  -2  -2  -1   78.66    6.39
  -2   2  -1   93.56    6.87
   2   2   1   85.97    6.77
  -3  -2  -1  122.68    9.56
   3  -2   1  113.31    8.74
  -3  -2  -1  118.56    9.49
  -3  -2  -1  110.36    8.63
  -3  -2  -1  113.24    8.75
   3  -2   1  120.34    9.38
  -3   2  -1  112.56    8.36
   3   2   1  113.64    8.58
  -3   2  -1  117.62    8.70
  -3   2  -1  106.20    8.36
  -3   2  -1  116.94    8.86
   4  -2   1   53.51    4.24
   4  -2   1   47.49    4.23
  -4  -2  -1   50.14    3.65
  -4  -2  -1   43.08    3.70
  -4  -2  -1   42.78    4.80
  -4  -2  -1   48.82    3.84
  -4  -2  -1   46.46    5.10
  -4   2  -1   51.31    4.30
  -4   2  -1   45.51    3.65
   4   2   1   43.02    3.93
  -4   2  -1   51.10    3.92
  -4   2  -1   41.77    4.75
  -4   2  -1   57.48    3.82
   5  -2   1    9.11    1.50
   5  -2   1   12.95    1.87
  -5  -2  -1    9.00    1.00
  -5  -2  -1    9.49    1.04
   5  -2   1    8.45    1.35
  -5  -2  -1    8.75    1.27
  -5  -2  -1    5.18    2.23
   5  -2   1    7.62    1.14
   5  -2   1   10.14    1.31
   5  -2   1    9.20    1.49
  -5  -2  -1    7.07    2.68
   5  -2   1   10.73    1.65
   5  -2   1   12.14    1.71
  -5  -2  -1   10.54    1.62
   5   2   1    6.58    1.40
   5   2   1    8.51    1.54
  -5   2  -1    7.94    0.95
  -5   2  -1   11.93    1.58
   5   2   1   10.20    1.84
  -5   2  -1    9.77    1.03
   5   2   1   12.43    1.72
   5   2   1    9.13    1.66
   5   2   1    8.07    1.13
   6  -2   1    9.21    1.25
   6  -2   1    9.22    1.70
   6  -2   1    9.49    1.62
   6  -2   1    9.29    1.91
  -6  -2  -1    8.75    1.31
  -6  -2  -1   12.47    3.12
   6  -2   1    8.57    1.63
  -6  -2  -1    8.62    1.10
  -6  -2  -1   10.46    1.08
   6  -2   1    7.62    1.57
   6   2   1    7.59    1.76
   6   2   1    9.50    1.48
  -6   2  -1    4.77    2.50
  -6   2  -1    8.12    1.09
   6   2   1    8.83    1.29
   6   2   1    8.57    1.71
   6   2   1    8.38    1.67
  -6   2  -1    7.19    0.95
   6   2   1   10.37    1.22
   6   2   1    6.09    1.37
   7  -2   1    0.66    1.19
   7  -2   1    0.71    1.45
  -7  -2  -1    2.63    0.82
   7  -2   1    0.93    1.02
   7  -2   1    1.93    1.24
  -7  -2  -1    1.66    0.58
   7   2   1    1.95    0.93
   7   2   1    2.24    1.20
   7   2   1    3.89    0.77
   7   2   1    1.41    1.05
   7   2   1    2.65    1.04
   7   2   1    3.24    0.93
   8  -2   1    7.25    1.28
  -8  -2  -1    6.22    0.88
   8   2   1    4.73    0.72
   8   2   1    7.56    1.49
   8   2   1    2.64    0.85
   8  -3  -1    3.54    1.08
  -8  -3   1    5.07    0.77
   8  -3  -1    5.84    1.08
   8   3  -1    3.02    0.65
   8   3  -1    4.62    1.12
   8   3  -1    3.42    0.89
   8   3  -1    3.79    0.67
   7  -3  -1   12.24    1.54
  -7  -3   1   12.05    1.38
   7  -3  -1   10.68    1.38
   7  -3  -1   12.48    1.86
  -7  -3   1   15.76    1.55
   7  -3  -1   12.25    2.02
   7   3  -1   11.02    2.06
   7   3  -1   10.92    1.88
   7   3  -1   13.77    1.61
   7   3  -1   14.65    1.86
   7   3  -1   14.16    1.45
   6  -3  -1   11.32    1.65
   6  -3  -1   10.61    1.32
   6  -3  -1   12.41    1.91
   6  -3  -1   11.91    1.92
   6  -3  -1   11.91    1.97
   6  -3  -1   14.69    2.41
  -6  -3   1   13.13    1.70
  -6  -3   1    8.78    1.27
  -6  -3   1   11.45    3.05
   6  -3  -1   10.94    1.32
   6  -3  -1   10.90    2.03
   6   3  -1   11.81    1.51
   6   3  -1   10.71    1.70
   6   3  -1   13.22    1.87
   6   3  -1   11.23    1.92
   6   3  -1   11.63    1.33
   6   3  -1   11.69    2.16
   5  -3  -1   32.26    3.13
   5  -3  -1   35.79    3.26
   5  -3  -1   37.41    3.97
  -5  -3   1   36.25    2.91
  -5  -3   1   40.01    3.07
   5  -3  -1   37.80    4.27
   5  -3  -1   39.98    3.41
   5  -3  -1   31.66    3.20
  -5  -3   1   32.29    3.28
   5  -3  -1   35.31    3.10
  -5  -3   1   38.47    5.66
   5  -3  -1   37.14    3.52
   5  -3  -1   37.61    2.99
  -5  -3   1   37.86    4.54
   5  -3  -1   34.36    2.99
  -5  -3   1   39.08    3.23
   5   3  -1   40.07    3.47
   5   3  -1   35.94    3.76
   5   3  -1   42.30    3.18
   5   3  -1   40.72    3.13
   5   3  -1   40.93    3.55
  -5   3   1   27.31    5.74
  -4  -3   1    4.78    1.48
  -4  -3   1    5.52    0.79
  -4  -3   1    4.91    1.66
  -4  -3   1    5.56    0.78
  -4  -3   1    5.67    0.84
   4  -3  -1    5.48    1.26
   4  -3  -1    4.53    0.82
  -4  -3   1    6.77    0.99
   4   3  -1    5.23    0.89
   4   3  -1    4.90    0.98
   4   3  -1    7.75    1.48
  -4   3   1    5.82    0.91
   4   3  -1    7.26    1.00
   4   3  -1    7.12    1.38
   3  -3  -1   55.28    4.35
  -3  -3   1   54.38    5.19
   3  -3  -1   44.03    3.95
  -3  -3   1   48.31    3.96
  -3  -3   1   50.97    4.81
   3  -3  -1   54.17    5.21
  -3  -3   1   53.88    4.00
   3   3  -1   47.22    4.16
  -3   3   1   56.81    5.16
   3   3  -1   53.62    4.20
  -2  -3   1   88.88    6.92
  -2  -3   1   99.05    6.89
   2  -3  -1  105.83    7.15
  -2  -3   1   89.39    7.60
  -2  -3   1   93.68    7.80
  -2  -3   1   97.00    6.93
   2  -3  -1   73.45    6.87
   2   3  -1   84.95    7.85
   2   3  -1  114.64    7.79
  -2   3   1  111.59    8.59
   2   3  -1  107.50    9.10
  -1  -3   1   67.22    5.28
  -1  -3   1   75.54    5.87
  -1  -3   1   72.64    5.27
  -1  -3   1   68.52    5.25
  -1  -3   1   65.98    5.93
   1  -3  -1   71.03    6.04
  -1   3   1   66.39    5.42
  -1   3   1   50.72    4.74
   1   3  -1   62.06    5.86
   1   3  -1   63.26    5.69
   1   3  -1   70.53    4.76
  -1   3   1   59.56    4.68
   1   3  -1   64.74    4.69
   0  -3  -1  292.86   21.87
   0  -3  -1  283.48   21.29
   0  -3   1  294.49   21.27
   0  -3  -1  265.94   21.27
   0  -3   1  308.67   21.81
   0   3  -1  289.46   21.43
   0   3   1  276.74   20.91
   0   3   1  290.91   21.41
   0   3   1  282.19   21.62
   0   3  -1  281.66   20.92
  -1  -3  -1   40.34    3.95
  -1  -3  -1   56.83    4.79
   1  -3   1   55.14    4.36
  -1  -3  -1   52.31    4.62
   1   3   1   53.34    5.13
  -1   3  -1   56.83    4.48
  -1   3  -1   51.17    3.99
  -1   3  -1   54.85    3.97
  -1   3  -1   55.46    5.10
   1   3   1   47.93    4.04
  -2  -3  -1  121.90    8.77
   2  -3   1  106.41    8.98
  -2  -3  -1  116.58    9.53
  -2  -3  -1  104.17    8.77
  -2  -3  -1  108.51    8.73
   2  -3   1  126.34    9.31
  -2  -3  -1  139.93    9.67
   2   3   1  100.39    8.31
  -2   3  -1  116.76    8.64
  -2   3  -1  108.57    8.27
   2   3   1  127.96    8.46
  -2   3  -1  106.46    8.26
  -3  -3  -1   57.71    4.63
  -3  -3  -1   58.03    4.54
   3  -3   1   60.96    4.56
  -3  -3  -1   61.04    5.59
   3  -3   1   60.13    4.98
  -3  -3  -1   63.57    5.53
  -3  -3  -1   53.10    4.47
  -3   3  -1   57.84    4.78
  -3   3  -1   59.61    4.37
  -3   3  -1   56.72    4.88
   3   3   1   60.51    4.63
  -4  -3  -1    5.92    0.89
  -4  -3  -1    5.47    0.78
   4  -3   1    7.03    1.84
   4  -3   1    5.92    1.68
   4  -3   1    5.96    0.96
  -4  -3  -1    3.51    1.57
  -4  -3  -1    5.95    0.77
  -4  -3  -1    7.46    1.15
   4  -3   1    4.82    1.26
   4   3   1    5.71    0.90
   4   3   1    8.37    1.35
   4   3   1    5.75    1.03
   4   3   1    5.96    1.37
   4   3   1    6.79    1.18
   4   3   1    7.47    1.55
   4   3   1    6.10    0.85
   5  -3   1   35.53    3.35
   5  -3   1   36.79    3.65
   5  -3   1   31.33    3.20
  -5  -3  -1   33.15    4.42
  -5  -3  -1   38.18    3.12
   5  -3   1   27.31    3.09
   5  -3   1   33.79    3.35
   5  -3   1   33.52    3.52
   5  -3   1   31.65    3.04
  -5  -3  -1   28.08    3.65
   5  -3   1   34.57    3.50
  -5  -3  -1   34.17    2.69
  -5  -3  -1   34.43    2.88
  -5   3  -1   28.23    4.02
  -5   3  -1   34.60    2.46
   5   3   1   29.30    4.25
   5   3   1   29.93    3.02
   5   3   1   29.20    2.97
   5   3   1   30.30    3.05
  -5   3  -1   31.26    3.49
  -6  -3  -1    6.91    1.09
   6  -3   1    9.97    1.88
  -6  -3  -1    5.39    2.75
  -6  -3  -1    8.18    1.16
   6  -3   1   11.02    1.68
  -6  -3  -1    8.21    1.31
   6  -3   1    7.40    1.55
   6  -3   1   10.65    1.69
   6   3   1    6.72    1.36
   6   3   1   11.24    1.66
   6   3   1    9.14    1.15
   6   3   1    7.61    1.66
   6   3   1    9.16    1.63
  -6   3  -1    7.27    1.04
   6   3   1    7.10    1.11
   6   3   1    7.91    1.46
   6   3   1   10.29    1.19
   7  -3   1   19.67    2.45
   7  -3   1   15.30    2.03
   7  -3   1   19.19    2.39
  -7  -3  -1   11.07    1.77
  -7  -3  -1   14.92    1.49
   7  -3   1   12.54    2.00
  -7  -3  -1   14.17    1.66
   7   3   1   14.01    1.74
   7   3   1   11.49    1.66
   7   3   1   14.03    1.93
   7   3   1   13.67    1.82
   7   3   1   15.63    1.59
   8  -3   1    3.06    1.35
   8  -3   1    1.33    0.88
  -8  -3  -1    3.05    0.62
   8   3   1    1.51    0.71
   8   3   1    1.94    1.08
   8   3   1    2.04    0.65
  -8  -4   1    3.25    0.65
   8   4  -1    3.32    0.93
   8   4  -1    3.41    0.64
   8   4  -1    3.26    0.83
   8   4  -1    3.09    0.82
  -7  -4   1    2.43    0.72
   7  -4  -1    2.53    1.19
   7  -4  -1    2.91    1.19
   7  -4  -1    1.67    1.13
  -7  -4   1    0.86    0.71
   7   4  -1    1.32    0.94
   7   4  -1    3.00    0.87
   7   4  -1    1.52    1.13
   7   4  -1    1.76    0.63
   6  -4  -1   18.14    2.77
   6  -4  -1   15.44    2.26
   6  -4  -1   16.18    1.78
   6  -4  -1   14.48    1.66
   6  -4  -1   13.76    2.06
   6  -4  -1   17.10    2.21
   6  -4  -1   18.77    2.33
   6  -4  -1   18.01    2.26
  -6  -4   1   15.79    1.60
  -6  -4   1   20.22    2.25
  -6  -4   1   15.57    1.62
   6   4  -1   18.61    2.28
   6   4  -1   18.01    1.82
   6   4  -1   17.23    2.15
   6   4  -1   18.68    2.07
   6   4  -1   18.22    1.75
   5  -4  -1   11.69    1.71
  -5  -4   1   12.04    1.62
  -5  -4   1   13.63    1.37
   5  -4  -1    8.69    2.42
  -5  -4   1   14.85    3.09
   5  -4  -1   13.57    1.44
   5  -4  -1   15.58    2.11
   5  -4  -1   12.79    1.60
  -5  -4   1   15.71    1.96
  -5  -4   1   11.48    1.34
  -5  -4   1   12.21    1.37
   5  -4  -1   12.65    1.80
   5   4  -1    9.38    1.74
   5   4  -1   10.15    1.60
   5   4  -1   12.93    1.43
   5   4  -1    9.81    1.98
  -4  -4   1   94.87   10.78
  -4  -4   1   93.45    6.31
   4  -4  -1   82.33    6.45
   4  -4  -1   61.04    6.29
   4  -4  -1   81.74    6.25
  -4  -4   1   86.73    6.11
  -4  -4   1   80.21    5.95
   4  -4  -1   69.45    5.97
   4  -4  -1   77.21    6.13
   4  -4  -1   66.85    5.97
  -4  -4   1   81.81    6.03
   4  -4  -1   80.50    6.00
  -4  -4   1   73.50    7.32
   4  -4  -1   76.65    7.60
   4   4  -1   58.62    5.27
  -4   4   1   55.32    6.49
   4   4  -1   68.26    5.31
   4   4  -1   64.25    5.40
  -4   4   1   76.97    5.14
   4   4  -1   71.50    5.23
  -3  -4   1  107.62    8.56
   3  -4  -1   99.72    8.14
  -3  -4   1  114.77    9.56
   3  -4  -1  110.51    9.48
  -3  -4   1  109.07    8.15
  -3  -4   1  105.66    9.31
  -3  -4   1  111.44    8.23
  -3  -4   1  117.09    8.23
  -3  -4   1  106.72    8.40
  -3   4   1  111.01    9.29
   3   4  -1  106.98    8.17
   3   4  -1  108.17    8.31
   2  -4  -1  188.03   15.23
   2  -4  -1  195.77   14.32
  -2  -4   1  182.51   15.04
  -2  -4   1  193.75   15.02
  -2  -4   1  203.12   14.13
  -2  -4   1  177.55   14.11
  -2   4   1  194.50   14.85
  -2   4   1  188.17   14.21
  -2   4   1  156.34   13.81
   2   4  -1  200.20   13.88
   2   4  -1  184.28   15.84
   2   4  -1  202.65   14.82
   2   4  -1  185.74   13.97
  -1  -4   1   70.35    5.89
  -1  -4   1   63.67    5.14
  -1  -4   1   69.44    5.99
  -1  -4   1   68.17    5.13
   1   4  -1   68.21    6.44
   1   4  -1   69.07    5.25
   1   4  -1   69.87    6.03
  -1   4   1   66.20    5.15
  -1   4   1   68.43    5.72
  -1   4   1   72.87    6.22
   0  -4  -1   14.77    1.33
   0  -4   1   14.97    2.12
   0  -4  -1   14.22    1.30
   0  -4   1   14.74    1.27
   0   4   1   14.53    2.36
   0   4  -1   14.01    1.95
   0   4   1   13.36    1.22
   0   4   1   14.92    1.99
   0   4  -1   14.48    2.60
   0   4  -1   14.21    1.24
  -1  -4  -1   66.62    5.85
   1  -4   1   71.47    5.75
  -1  -4  -1   70.49    5.08
  -1  -4  -1   62.37    5.90
  -1  -4  -1   65.73    5.02
  -1  -4  -1   64.99    5.09
   1   4   1   62.77    4.75
   1   4   1   65.04    4.73
  -1   4  -1   58.80    4.68
  -1   4  -1   60.65    5.96
  -1   4  -1   66.10    5.34
   1   4   1   61.78    6.04
  -2  -4  -1  179.57   15.13
  -2  -4  -1  196.65   14.89
   2  -4   1  185.94   14.55
   2   4   1  193.32   13.71
  -2   4  -1  184.55   14.04
   2   4   1  191.61   13.63
  -2   4  -1  159.34   13.57
  -2   4  -1  188.17   13.57
  -2   4  -1  182.57   15.07
   2   4   1  187.98   15.32
  -3  -4  -1  119.48    9.94
   3  -4   1  115.09    9.10
  -3  -4  -1  118.77    8.67
   3  -4   1  113.27    9.59
  -3  -4  -1  106.06    8.62
  -3  -4  -1  121.49    8.74
  -3  -4  -1  119.69    8.79
  -3  -4  -1  112.39    9.83
   3   4   1  114.11    8.62
  -3   4  -1  105.47    8.37
  -3   4  -1  109.82    8.40
  -3   4  -1  110.01    8.87
  -3   4  -1  120.73   10.49
   3   4   1  120.03    8.57
  -4  -4  -1   94.53    7.11
  -4  -4  -1   93.14    8.52
   4  -4   1   89.19    7.73
  -4  -4  -1   86.81    6.91
  -4  -4  -1  102.82    7.15
   4  -4   1   88.07    7.49
   4  -4   1   77.08    7.12
   4  -4   1  102.70    8.13
  -4   4  -1   82.11    6.63
   4   4   1   94.07    7.16
   4   4   1   90.80    6.83
  -4   4  -1   89.32    7.37
   4   4   1   88.99    7.08
   4   4   1   93.15    7.08
   4   4   1   89.62    6.78
   4   4   1   87.18    6.98
   5  -4   1   17.45    2.18
  -5  -4  -1   16.59    1.79
   5  -4   1   18.64    2.18
  -5  -4  -1   12.91    1.50
   5  -4   1   20.32    2.47
  -5  -4  -1   15.03    1.55
  -5  -4  -1   17.05    2.47
   5  -4   1   14.91    2.54
   5  -4   1   12.24    2.33
  -5  -4  -1   15.07    2.02
  -5  -4  -1   15.86    3.46
   5  -4   1   13.95    2.48
   5  -4   1   20.52    2.34
   5   4   1   18.51    1.93
  -5   4  -1   13.54    1.42
   5   4   1   15.19    1.99
   5   4   1   18.61    3.18
   5   4   1   15.35    1.61
  -5   4  -1   14.56    2.10
   6  -4   1   17.74    2.14
  -6  -4  -1   13.18    1.54
  -6  -4  -1   13.71    1.78
  -6  -4  -1   16.96    1.80
   6  -4   1   17.33    2.40
  -6  -4  -1   13.73    2.02
   6  -4   1   14.78    2.12
  -6  -4  -1   12.23    5.11
   6  -4   1   14.01    2.36
   6   4   1   12.99    2.00
   6   4   1   13.90    1.96
   6   4   1   15.74    2.08
   6   4   1   16.99    1.77
   6   4   1   14.88    1.47
   6   4   1   13.66    1.96
   6   4   1   16.99    1.67
  -7  -4  -1    2.16    0.73
   7  -4   1    0.72    1.72
  -7  -4  -1    2.57    0.67
   7  -4   1    2.74    1.13
   7  -4   1    1.74    1.05
  -7  -4  -1    2.13    0.69
   7  -4   1    2.86    1.34
   7   4   1    2.63    0.75
   7   4   1    0.58    0.95
   7   4   1    1.11    0.66
   7   4   1    2.82    0.95
  -8  -4  -1    2.03    0.58
   8  -4   1    1.79    1.28
   8   4   1    2.99    0.65
   8   4   1    1.58    1.01
   8   4   1    2.43    0.95
   7  -5  -1    6.94    1.32
   7  -5  -1    6.90    1.60
  -7  -5   1    6.96    0.92
  -7  -5   1    4.64    0.81
   7  -5  -1    4.33    1.57
   7  -5  -1    6.45    0.99
   7   5  -1    5.50    1.42
   7   5  -1    8.34    1.55
   7   5  -1    6.09    0.93
   7   5  -1    9.84    1.56
   7   5  -1    6.71    1.04
   6  -5  -1   20.23    1.98
   6  -5  -1   18.41    2.59
  -6  -5   1   22.61    1.97
   6  -5  -1   21.78    2.89
   6  -5  -1   24.52    2.09
   6  -5  -1   25.98    3.41
  -6  -5   1   21.56    1.98
   6  -5  -1   17.03    2.64
  -6  -5   1   19.44    4.35
   6   5  -1   22.65    2.00
   6   5  -1   22.67    2.37
   6   5  -1   15.88    2.95
   6   5  -1   26.17    2.68
  -5  -5   1   11.56    1.32
   5  -5  -1   13.79    2.45
   5  -5  -1   12.59    1.80
  -5  -5   1   12.55    2.98
   5  -5  -1    9.04    1.41
   5  -5  -1   11.14    1.50
   5  -5  -1   11.96    1.74
  -5  -5   1    9.88    1.28
   5  -5  -1   15.85    2.08
   5  -5  -1   15.02    2.64
  -5  -5   1   10.35    1.30
  -5  -5   1   11.40    1.83
   5  -5  -1   10.51    1.92
  -5  -5   1   11.27    1.70
  -5  -5   1    6.67    4.67
   5   5  -1   10.52    1.66
   5   5  -1   13.85    1.92
   5   5  -1   13.21    2.09
   5   5  -1   10.32    1.50
  -4  -5   1   22.94    2.11
   4  -5  -1   21.33    2.10
   4  -5  -1   23.21    2.86
  -4  -5   1   21.08    1.87
   4  -5  -1   21.54    2.62
   4  -5  -1   20.45    2.01
  -4  -5   1   23.14    1.99
  -4  -5   1   23.03    2.18
  -4  -5   1   19.17    3.55
   4  -5  -1   21.92    2.32
   4  -5  -1   16.68    2.87
   4  -5  -1   18.69    1.98
  -4  -5   1   20.90    1.94
  -4   5   1   23.58    1.67
   4   5  -1   21.31    2.15
   4   5  -1   20.09    2.10
   4   5  -1   20.66    1.87
   4   5  -1   15.31    2.37
  -3  -5   1   46.08    4.75
   3  -5  -1   45.07    3.92
  -3  -5   1   41.88    4.98
  -3  -5   1   42.74    3.40
  -3  -5   1   44.14    3.52
   3  -5  -1   45.78    5.59
  -3  -5   1   40.76    3.47
  -3  -5   1   41.90    3.40
  -3  -5   1   46.03    3.53
   3   5  -1   34.75    3.69
  -3   5   1   34.06    3.07
  -3   5   1   37.35    6.02
  -3   5   1   40.73    2.96
   3   5  -1   40.89    3.14
   3   5  -1   47.60    5.62
  -3   5   1   38.35    3.68
  -2  -5   1   67.27    5.75
  -2  -5   1   52.39    4.78
  -2  -5   1   62.48    4.60
  -2  -5   1   64.66    5.91
   2  -5  -1   56.63    6.31
  -2  -5   1   60.81    4.70
   2   5  -1   68.24    5.06
  -2   5   1   69.77    6.39
  -2   5   1   58.88    4.86
   2   5  -1   66.44    6.79
   2   5  -1   65.34    6.13
   2   5  -1   66.06    5.01
   2   5  -1   64.50    4.96
  -2   5   1   64.62    5.52
  -2   5   1   60.94    4.99
  -1  -5   1   47.01    3.59
   1  -5  -1   47.43    4.73
  -1  -5   1   45.72    4.46
  -1  -5   1   46.21    3.57
  -1  -5   1   42.92    3.49
  -1   5   1   57.59    4.66
  -1   5   1   49.03    3.87
   1   5  -1   50.87    3.87
   1   5  -1   40.40    3.88
  -1   5   1   46.64    3.80
   1   5  -1   51.22    5.60
   1   5  -1   62.49    5.03
  -1   5   1   47.93    5.13
   0  -5  -1  129.26   10.27
   0  -5   1  112.09    9.18
   0  -5  -1  128.64    9.25
   0  -5   1  129.38   10.12
   0  -5  -1  119.68    9.19
   0   5  -1  126.16    9.87
   0   5  -1  116.18    9.02
   0   5  -1  128.20   10.71
   0   5   1  129.24    9.91
   0   5  -1  122.85    9.02
   0   5   1  113.19    9.02
   0   5   1  113.56   10.24
  -1  -5  -1   63.77    5.78
  -1  -5  -1   62.64    5.94
   1  -5   1   65.66    6.19
  -1  -5  -1   62.63    4.81
  -1  -5  -1   59.48    4.79
  -1   5  -1   51.87    5.12
   1   5   1   69.53    4.46
   1   5   1   52.78    4.42
   1   5   1   56.78    5.38
  -2  -5  -1   60.86    4.85
  -2  -5  -1   58.10    5.77
  -2  -5  -1   64.01    6.05
  -2  -5  -1   62.08    4.72
  -2  -5  -1   65.71    4.85
   2  -5   1   59.69    5.13
   2  -5   1   63.74    5.75
   2   5   1   61.77    4.57
  -2   5  -1   62.03    6.90
   2   5   1   64.46    6.67
  -2   5  -1   62.27    5.26
   2   5   1   60.30    4.64
  -2   5  -1   51.89    4.47
  -2   5  -1   55.92    4.61
  -3  -5  -1   39.79    3.36
  -3  -5  -1   40.25    4.75
   3  -5   1   41.81    3.84
  -3  -5  -1   42.01    3.24
  -3  -5  -1   38.81    4.79
  -3  -5  -1   40.74    3.24
  -3  -5  -1   44.58    3.43
   3   5   1   38.94    3.26
  -3   5  -1   39.06    3.76
  -3   5  -1   41.97    5.50
   3   5   1   41.59    3.39
  -3   5  -1   39.03    3.06
  -4  -5  -1   20.07    2.42
  -4  -5  -1   20.97    3.77
  -4  -5  -1   23.72    2.42
   4  -5   1   20.17    2.49
   4  -5   1   23.72    2.32
  -4  -5  -1   24.74    2.28
  -4  -5  -1   22.72    1.97
   4  -5   1   26.35    2.95
   4  -5   1   20.01    2.69
   4  -5   1   22.80    3.45
   4  -5   1   23.54    3.08
   4   5   1   20.97    2.16
   4   5   1   21.76    1.97
   4   5   1   23.30    2.64
  -4   5  -1   19.41    2.97
  -4   5  -1   24.19    1.84
   4   5   1   22.72    2.11
  -4   5  -1   18.89    5.90
   4   5   1   19.44    2.24
   4   5   1   19.92    2.63
   5  -5   1   12.36    2.23
  -5  -5  -1   11.29    1.51
   5  -5   1    9.53    1.57
   5  -5   1    8.09    1.75
  -5  -5  -1    9.52    1.21
   5  -5   1   15.25    2.76
   5  -5   1   11.66    2.44
  -5  -5  -1   11.13    1.30
  -5  -5  -1   10.81    1.93
  -5  -5  -1    8.87    1.77
  -5  -5  -1    6.03    2.37
   5  -5   1   11.71    2.00
  -5   5  -1   12.03    1.23
  -5   5  -1   10.27    5.31
   5   5   1   10.11    1.88
   5   5   1   11.76    1.43
   5   5   1    9.14    1.75
   5   5   1   11.63    1.77
  -6  -5  -1   25.14    2.42
  -6  -5  -1   31.75    5.07
   6  -5   1   30.02    2.97
  -6  -5  -1   27.88    2.41
  -6  -5  -1   25.75    2.52
   6   5   1   34.07    3.27
   7  -5   1    7.99    1.49
  -7  -5  -1    5.11    0.84
  -7  -5  -1    4.52    0.76
  -7  -5  -1    5.66    0.88
   7  -5   1    4.49    3.63
   7  -5   1    4.46    1.24
   7   5   1    4.68    1.05
   7   5   1    4.48    0.79
   7   5   1    2.91    1.04
   7   5   1    6.77    0.99
  -7  -6   1    9.44    1.10
  -7  -6   1    7.58    1.13
   7   6  -1    6.44    1.27
   7   6  -1    8.17    1.21
   7   6  -1    9.52    1.62
   7   6  -1   10.65    1.60
   6  -6  -1    2.18    1.67
   6  -6  -1    1.29    1.32
   6  -6  -1    1.18    0.89
  -6  -6   1   -0.57    2.57
  -6  -6   1    0.28    0.76
   6  -6  -1    1.35    0.79
   6  -6  -1    0.42    1.02
  -6  -6   1    1.21    0.62
   6  -6  -1    0.55    1.73
  -6  -6   1    0.95    0.62
   6   6  -1    0.44    1.07
   6   6  -1    1.08    0.75
   6   6  -1    1.08    1.45
   6   6  -1    1.18    0.92
  -5  -6   1   53.66    4.84
   5  -6  -1   58.31    5.30
   5  -6  -1   50.93    5.60
   5  -6  -1   64.31    4.88
  -5  -6   1   51.75    4.53
   5  -6  -1   54.76    4.55
   5  -6  -1   62.88    4.60
  -5  -6   1   62.97    4.60
  -5  -6   1   47.20    6.59
  -5  -6   1   60.75    4.64
   5  -6  -1   69.98    5.23
  -5  -6   1   55.43    5.16
   5   6  -1   56.61    3.99
   5   6  -1   47.19    3.72
   5   6  -1   35.82    3.91
   5   6  -1   49.52    4.04
   5   6  -1   41.10    4.11
   4  -6  -1   36.45    3.09
  -4  -6   1   36.68    2.99
   4  -6  -1   40.37    5.25
   4  -6  -1   31.68    3.04
  -4  -6   1   35.42    3.23
   4  -6  -1   43.08    3.41
  -4  -6   1   31.01    5.90
   4  -6  -1   36.77    3.27
  -4  -6   1   37.89    3.08
  -4  -6   1   39.35    3.30
  -4  -6   1   30.65    4.57
  -4  -6   1   37.92    3.12
   4  -6  -1   42.84    3.81
   4  -6  -1   37.28    4.39
   4   6  -1   30.04    2.76
   4   6  -1   28.89    2.71
   4   6  -1   35.34    2.54
   4   6  -1   26.35    2.74
   4   6  -1   23.61    3.06
   3  -6  -1   70.32    5.51
   3  -6  -1   51.23    6.57
  -3  -6   1   52.43    6.28
   3  -6  -1   79.23    5.68
  -3  -6   1   61.96    5.07
  -3  -6   1   62.93    4.90
  -3  -6   1   70.48    5.13
  -3  -6   1   61.60    5.30
  -3  -6   1   63.60    4.93
   3  -6  -1   68.07    5.63
   3  -6  -1   64.82    4.98
   3   6  -1   66.33    4.45
   3   6  -1   55.76    4.69
   3   6  -1   60.61    4.55
  -3   6   1   65.83    4.44
   3   6  -1   53.65    4.72
   3   6  -1   46.06    7.17
  -3   6   1   53.76    7.47
  -2  -6   1   39.32    3.14
  -2  -6   1   38.09    3.24
  -2  -6   1   39.95    4.69
  -2  -6   1   43.08    3.16
   2  -6  -1   41.50    4.82
  -2  -6   1   40.74    4.63
  -2  -6   1   37.19    3.21
   2  -6  -1   38.65    3.71
   2   6  -1   36.08    2.86
  -2   6   1   30.79    4.79
  -2   6   1   35.76    3.81
   2   6  -1   37.73    3.03
  -2   6   1   34.07    2.90
   2   6  -1   37.98    5.10
   2   6  -1   37.52    3.03
  -2   6   1   39.35    2.87
   2   6  -1   41.99    3.12
   2   6  -1   39.45    4.46
  -1  -6   1   50.74    4.24
  -1  -6   1   58.70    5.45
  -1  -6   1   49.07    4.36
  -1  -6   1   59.29    5.56
   1  -6  -1   57.02    5.55
  -1  -6   1   56.16    4.23
  -1  -6   1   51.86    4.12
  -1   6   1   51.77    5.65
  -1   6   1   45.99    4.79
   1   6  -1   54.18    5.89
   1   6  -1   48.81    5.10
  -1   6   1   46.06    3.82
   1   6  -1   52.97    3.80
   0  -6  -1    1.35    0.61
   0  -6   1    1.70    1.05
   0  -6   1    0.93    0.96
   0  -6  -1    0.87    1.16
   0  -6  -1    0.07    0.74
   0  -6   1    1.54    0.93
   0   6   1    0.91    1.18
   0   6  -1    0.61    1.26
   0   6   1    1.09    0.47
   0   6  -1    1.32    0.46
   0   6   1    1.16    0.50
   0   6  -1    0.99    0.46
   0   6  -1    0.14    1.19
   0   6  -1    2.08    0.47
   0   6   1    1.27    1.23
  -1  -6  -1   38.55    3.63
  -1  -6  -1   52.30    3.70
  -1  -6  -1   48.05    5.27
  -1  -6  -1   47.92    3.65
  -1  -6  -1   46.67    4.93
  -1  -6  -1   44.41    3.67
   1  -6   1   44.75    4.85
  -1   6  -1   44.57    3.43
   1   6   1   43.24    5.35
  -1   6  -1   47.92    5.54
  -1   6  -1   46.23    4.54
   1   6   1   42.26    3.40
   1   6   1   40.44    3.43
   1   6   1   48.17    4.75
  -2  -6  -1   35.87    2.79
  -2  -6  -1   30.65    2.79
   2  -6   1   33.48    3.26
   2  -6   1   32.48    4.09
  -2  -6  -1   34.90    4.32
  -2  -6  -1   32.83    2.65
   2   6   1   36.68    2.91
   2   6   1   33.51    2.93
  -2   6  -1   34.91    2.76
   2   6   1   34.57    2.89
  -2   6  -1   38.24    3.93
   2   6   1   35.70    2.72
  -2   6  -1   37.31    5.09
   2   6   1   29.30    5.01
  -3  -6  -1   80.17    7.60
  -3  -6  -1   69.29    5.64
  -3  -6  -1   67.97    5.70
  -3  -6  -1   68.91    5.50
  -3  -6  -1   74.22    7.27
   3  -6   1   72.69    6.02
   3  -6   1   73.21    6.30
  -3  -6  -1   77.82    5.70
   3  -6   1   70.07    6.10
   3  -6   1   72.90    5.73
   3   6   1   74.23    5.54
   3   6   1   75.67    5.54
   3   6   1   71.36    5.31
  -3   6  -1   59.23    5.27
  -3   6  -1   68.84   10.20
  -3   6  -1   69.93    6.30
  -4  -6  -1   47.97    3.69
   4  -6   1   44.15    5.48
   4  -6   1   45.86    3.72
  -4  -6  -1   46.89    5.74
   4  -6   1   34.27    3.79
  -4  -6  -1   51.81    3.62
  -4  -6  -1   41.04    3.42
   4  -6   1   38.86    3.95
  -4  -6  -1   43.13    3.79
  -4  -6  -1   39.36    3.60
   4  -6   1   43.82    4.19
   4   6   1   49.46    3.95
   4   6   1   42.18    3.82
   4   6   1   47.71    3.74
  -4   6  -1   36.88    3.44
   4   6   1   49.17    4.15
   4   6   1   44.00    3.63
  -5  -6  -1   66.52    5.48
   5  -6   1   60.79    5.72
  -5  -6  -1   67.49    6.19
   5  -6   1   73.10    6.34
   5  -6   1   69.86    5.85
  -5  -6  -1   67.55    5.37
  -5  -6  -1   70.84    5.61
   5  -6   1   76.96    5.59
  -5  -6  -1   73.97    7.83
  -5  -6  -1   62.11    5.39
   5  -6   1   71.46    6.10
   5   6   1   76.19    5.94
   5   6   1   78.02    6.15
   5   6   1   81.25    6.22
   5   6   1   71.33    5.91
  -5   6  -1   65.07    5.77
   5   6   1   85.99    6.23
  -6  -6  -1    1.22    0.75
   6  -6   1    0.22    1.53
  -6  -6  -1    1.70    0.64
   6  -6   1   -0.41    1.53
   6  -6   1    1.66    1.48
  -6  -6  -1    0.69    0.58
  -6  -6  -1    0.34    2.50
   6  -6   1    1.19    1.16
   6   6   1    0.62    0.66
   6   6   1    1.23    1.04
   6   6   1   -0.65    1.17
  -7  -6  -1    7.02    1.21
   7  -6   1    6.75    1.30
  -7  -6  -1    7.72    1.08
  -7  -6  -1    5.48    0.87
   7   6   1    7.62    1.00
   7   6   1    8.13    1.54
   7   6   1    6.55    1.30
   7   6   1    5.31    1.25
  -7  -7   1    1.05    0.83
  -7  -7   1    1.38    0.59
   7   7  -1    1.12    1.70
   7   7  -1    0.95    0.51
   7   7  -1    0.64    0.60
   6  -7  -1    2.90    1.17
   6  -7  -1    3.66    1.42
   6  -7  -1    5.90    1.46
  -6  -7   1    4.12    0.81
  -6  -7   1    3.11    1.01
   6  -7  -1    4.36    0.91
   6   7  -1    3.76    0.80
   6   7  -1    2.81    1.51
   6   7  -1    5.47    1.42
   6   7  -1    5.56    1.25
   5  -7  -1   11.91    1.79
   5  -7  -1   11.13    1.43
   5  -7  -1   12.03    2.35
   5  -7  -1   10.19    1.85
   5  -7  -1   13.08    1.60
   5  -7  -1   13.50    2.37
  -5  -7   1   14.09    2.14
  -5  -7   1   13.30    1.53
   5  -7  -1   10.38    1.63
  -5  -7   1   13.71    4.20
  -5  -7   1   10.88    1.34
   5   7  -1   11.66    1.54
   5   7  -1   13.05    2.32
   5   7  -1   12.92    1.76
   5   7  -1   10.85    1.87
   5   7  -1   11.36    1.48
   4  -7  -1   26.54    3.02
  -4  -7   1   32.33    2.63
   4  -7  -1   27.63    3.05
   4  -7  -1   31.44    3.71
  -4  -7   1   31.70    2.77
  -4  -7   1   40.94    6.40
   4  -7  -1   32.43    2.73
   4  -7  -1   29.44    4.11
   4  -7  -1   33.62    2.74
  -4  -7   1   32.69    3.03
   4  -7  -1   31.82    3.38
  -4  -7   1   31.33    3.06
  -4  -7   1   30.84    4.82
  -4  -7   1   29.60    2.59
   4   7  -1   32.09    2.93
   4   7  -1   30.07    2.73
   4   7  -1   35.25    3.53
  -4   7   1   28.89    2.59
   4   7  -1   33.73    3.18
   3  -7  -1   22.45    2.19
   3  -7  -1   24.22    2.90
   3  -7  -1   25.30    3.01
  -3  -7   1   22.39    3.87
  -3  -7   1   25.09    2.11
   3  -7  -1   20.22    2.24
  -3  -7   1   23.27    2.01
  -3  -7   1   26.31    2.74
   3  -7  -1   21.67    2.45
   3  -7  -1   23.51    2.47
   3  -7  -1   30.23    3.20
   3  -7  -1   23.24    4.37
  -3  -7   1   27.05    2.85
  -3  -7   1   22.43    2.19
   3   7  -1   23.22    2.00
   3   7  -1   19.38    2.43
   3   7  -1   21.66    2.17
   3   7  -1   22.90    1.89
  -3   7   1   23.77    1.91
  -3   7   1   20.69    1.80
  -3   7   1   19.55    3.34
  -2  -7   1   29.63    2.34
   2  -7  -1   21.17    2.21
   2  -7  -1   23.03    4.13
  -2  -7   1   23.30    2.54
  -2  -7   1   21.62    3.99
   2  -7  -1   23.85    2.72
   2  -7  -1   22.59    3.07
  -2  -7   1   27.40    2.06
  -2  -7   1   30.65    4.28
  -2  -7   1   28.03    2.34
  -2  -7   1   24.36    2.01
   2  -7  -1   25.76    2.24
   2  -7  -1   24.78    2.22
   2  -7  -1   19.76    2.59
  -2   7   1   19.94    3.32
   2   7  -1   20.39    3.82
  -2   7   1   21.33    3.95
  -2   7   1   24.52    2.12
   2   7  -1   19.09    4.45
  -2   7   1   26.86    2.07
   2   7  -1   25.35    1.91
  -1  -7   1   30.76    2.48
  -1  -7   1   25.52    3.86
  -1  -7   1   24.44    4.27
  -1  -7   1   29.08    2.57
   1  -7  -1   27.65    3.99
   1  -7  -1   28.30    2.50
  -1  -7   1   33.89    2.59
   1   7  -1   28.63    2.49
   1   7  -1   34.93    2.51
   1   7  -1   29.59    5.08
  -1   7   1   26.24    2.41
  -1   7   1   30.30    4.82
   1   7  -1   30.25    2.38
   1   7  -1   25.45    4.59
  -1   7   1   30.68    2.38
  -1   7   1   26.80    3.86
   1   7  -1   30.43    2.51
   0  -7  -1   13.82    1.62
   0  -7  -1   16.29    3.22
   0  -7  -1   15.23    1.68
   0  -7   1   15.68    3.17
   0  -7   1   15.11    1.57
   0   7   1   15.15    1.51
   0   7   1   19.21    3.75
   0   7  -1   17.83    3.35
   0   7  -1   15.01    1.52
   0   7  -1   14.99    1.44
   0   7   1   18.31    3.38
   0   7  -1   10.64    2.76
   0   7  -1   17.51    1.70
  -1  -7  -1   24.56    2.51
  -1  -7  -1   26.48    2.45
  -1  -7  -1   26.53    3.77
   1  -7   1   29.89    2.43
  -1  -7  -1   29.12    2.41
  -1   7  -1   24.26    4.92
  -1   7  -1   30.06    3.74
   1   7   1   26.00    2.18
  -1   7  -1   27.00    2.61
   1   7   1   26.42    2.29
  -1   7  -1   28.27    2.24
   1   7   1   24.70    2.43
  -1   7  -1   27.15    2.17
  -2  -7  -1   22.63    2.00
  -2  -7  -1   23.31    2.29
   2  -7   1   25.85    2.62
   2  -7   1   20.64    2.74
   2  -7   1   28.70    3.14
  -2  -7  -1   22.10    4.00
  -2  -7  -1   27.22    2.11
   2   7   1   21.92    1.74
   2   7   1   22.96    1.99
   2   7   1   18.15    2.01
  -2   7  -1   18.35    3.08
  -2   7  -1   25.91    2.03
  -2   7  -1   14.59    3.42
   3  -7   1   25.76    3.32
   3  -7   1   21.84    2.41
   3  -7   1   25.16    2.86
   3  -7   1   28.78    3.39
   3  -7   1   21.79    2.26
  -3  -7  -1   23.37    3.98
  -3  -7  -1   26.17    2.12
  -3  -7  -1   22.92    3.39
   3  -7   1   25.07    2.65
  -3  -7  -1   24.90    2.16
  -3  -7  -1   23.82    2.25
  -3  -7  -1   25.78    2.41
   3   7   1   22.02    2.41
  -3   7  -1   21.56    1.98
   3   7   1   24.12    2.05
   3   7   1   28.20    2.34
  -3   7  -1   17.81    3.22
   3   7   1   24.14    2.18
  -4  -7  -1   31.76    2.55
  -4  -7  -1   26.28    4.82
  -4  -7  -1   25.51    2.87
   4  -7   1   26.80    2.98
   4  -7   1   30.11    3.73
   4  -7   1   32.68    3.03
  -4  -7  -1   29.82    3.10
  -4  -7  -1   28.92    2.71
   4  -7   1   32.93    3.52
   4  -7   1   32.24    3.13
  -4  -7  -1   29.49    2.55
   4   7   1   23.63    2.70
   4   7   1   27.58    2.59
  -4   7  -1   30.32    2.45
   4   7   1   31.73    2.85
   4   7   1   34.50    4.82
   4   7   1   29.81    3.14
  -5  -7  -1    9.95    1.39
   5  -7   1    7.49    1.38
   5  -7   1    9.04    1.75
  -5  -7  -1    7.11    1.78
  -5  -7  -1    2.05    3.98
  -5  -7  -1    8.79    1.23
   5  -7   1    9.29    2.01
   5  -7   1    8.22    1.82
  -5   7  -1    5.89    1.03
   5   7   1    6.52    1.10
   5   7   1    6.84    1.16
   5   7   1    7.72    1.46
  -6  -7  -1    8.00    2.02
   6  -7   1    6.90    1.58
  -6  -7  -1    4.51    0.77
   6  -7   1    3.23    1.55
   6   7   1    9.03    2.10
   6   7   1    6.08    1.35
   6   7   1    6.61    1.13
   7  -7   1    1.13    1.44
  -7  -7  -1    1.30    0.60
  -7  -7  -1    1.10    0.60
   7  -7   1    2.61    1.06
   7   7   1    0.50    0.61
   7   7   1    1.52    1.76
   7   7   1    0.79    0.84
  -7  -8   1    0.64    1.18
   7   8  -1    0.54    0.53
   7   8  -1    0.84    0.62
  -6  -8   1   10.95    1.39
   6  -8  -1   13.98    2.21
  -6  -8   1   13.20    1.50
  -6  -8   1   10.41    1.55
   6  -8  -1   14.42    2.31
   6   8  -1   10.75    2.18
   6   8  -1    9.43    1.16
   5  -8  -1    7.82    1.89
  -5  -8   1    8.25    1.21
  -5  -8   1    3.02    3.24
   5  -8  -1    8.00    1.63
  -5  -8   1    2.72    2.94
   5  -8  -1    7.57    1.71
  -5  -8   1    7.06    1.09
   5  -8  -1    3.87    2.51
  -5  -8   1    8.99    1.37
   5   8  -1   10.50    1.48
   5   8  -1    9.38    2.10
   5   8  -1    8.13    1.54
  -4  -8   1   27.93    3.51
  -4  -8   1   31.43    2.84
   4  -8  -1   26.73    2.85
   4  -8  -1   32.62    4.49
  -4  -8   1   32.46    2.75
   4  -8  -1   30.75    3.39
   4  -8  -1   33.88    3.21
   4  -8  -1   32.08    3.88
  -4  -8   1   37.86    4.39
   4  -8  -1   32.54    2.80
   4  -8  -1   33.02    3.13
   4   8  -1   31.71    2.92
   4   8  -1   27.04    2.78
   4   8  -1   30.06    2.81
  -4   8   1   32.42    2.61
   3  -8  -1    4.98    1.68
  -3  -8   1    5.79    1.15
  -3  -8   1    6.95    0.96
  -3  -8   1    4.36    1.99
  -3  -8   1    5.44    1.05
  -3  -8   1    3.24    1.43
   3  -8  -1    6.00    1.11
  -3  -8   1    7.64    1.51
   3  -8  -1    9.39    2.47
   3  -8  -1    6.05    0.97
  -3   8   1    5.61    0.88
   3   8  -1    2.97    1.21
   3   8  -1    4.12    0.80
   3   8  -1    4.50    1.00
  -3   8   1    4.06    2.29
   2  -8  -1   23.55    2.44
  -2  -8   1   21.69    1.92
  -2  -8   1   20.71    2.14
  -2  -8   1   15.33    1.86
   2  -8  -1   14.10    2.48
  -2  -8   1   19.59    4.28
   2  -8  -1   15.18    1.93
  -2  -8   1   17.09    2.55
   2  -8  -1   21.23    1.89
   2  -8  -1   12.02    4.40
  -2  -8   1   20.09    1.68
   2  -8  -1   21.22    2.28
   2  -8  -1   23.32    2.68
   2   8  -1   15.39    1.95
   2   8  -1   23.77    1.74
   2   8  -1   18.59    1.87
  -2   8   1   22.89    1.87
  -2   8   1   17.74    3.25
   2   8  -1   20.36    2.15
   2   8  -1   19.14    1.83
  -2   8   1   12.18    5.73
   1  -8  -1   11.96    1.46
   1  -8  -1   16.01    2.00
  -1  -8   1   10.77    1.43
   1  -8  -1   11.61    1.68
   1  -8  -1   12.96    1.57
  -1   8   1    9.99    2.37
   1   8  -1   11.84    1.40
  -1   8   1   11.03    1.37
   1   8  -1   11.03    1.81
  -1   8   1    6.38    2.92
   1   8  -1   10.34    1.14
  -1   8   1   11.52    1.65
   1   8  -1   10.73    1.33
   1   8  -1   11.64    1.49
   0  -8  -1   10.16    1.85
   0  -8   1    7.76    2.34
   0  -8   1   15.67    2.06
   0  -8   1   13.38    1.45
   0  -8   1   10.17    1.50
   0  -8  -1   11.99    1.48
   0  -8   1   11.66    2.07
   0  -8  -1   12.99    1.72
   0   8  -1   11.19    2.90
   0   8  -1   12.70    1.23
   0   8   1   12.46    1.62
   0   8  -1   14.85    1.71
   0   8  -1   10.96    1.42
   0   8   1    8.59    2.32
   0   8  -1    9.83    1.54
   1  -8   1   15.45    2.02
  -1  -8  -1   11.38    1.70
  -1  -8  -1   13.16    1.88
  -1  -8  -1   13.70    1.81
  -1  -8  -1   11.68    1.45
   1  -8   1   11.90    1.70
   1  -8   1   14.55    1.84
   1  -8   1   13.88    1.96
   1  -8   1   12.42    1.53
  -1   8  -1   12.18    1.45
   1   8   1   11.04    1.40
   1   8   1   12.88    1.55
  -1   8  -1   11.08    1.38
  -1   8  -1   10.50    2.76
   1   8   1   10.83    1.20
   1   8   1   10.43    1.47
  -2  -8  -1   20.59    2.53
  -2  -8  -1   23.06    2.32
  -2  -8  -1   23.12    2.54
   2  -8   1   17.57    2.42
  -2  -8  -1   19.02    4.14
   2  -8   1   27.18    3.13
  -2  -8  -1   19.12    4.11
   2  -8   1   17.93    1.98
   2  -8   1   20.96    2.28
   2  -8   1   17.24    2.60
  -2  -8  -1   23.69    2.17
  -2  -8  -1   20.45    2.08
   2   8   1   22.33    2.12
   2   8   1   23.60    1.95
  -2   8  -1   21.02    3.48
   2   8   1   20.55    2.17
  -2   8  -1   19.42    4.82
   2   8   1   17.73    2.28
  -2   8  -1   24.29    2.10
  -2   8  -1   22.53    1.98
  -2   8  -1   20.50    1.98
  -3  -8  -1    8.66    1.68
  -3  -8  -1    9.25    3.32
   3  -8   1   11.57    2.18
   3  -8   1    7.57    2.00
   3  -8   1    9.90    1.51
  -3  -8  -1    9.02    1.16
   3  -8   1    6.96    1.20
  -3  -8  -1   10.66    1.78
  -3  -8  -1   10.22    1.20
  -3  -8  -1    6.82    1.94
  -3  -8  -1    7.26    1.18
  -3   8  -1    6.74    1.12
  -3   8  -1   10.42    3.67
   3   8   1    8.77    1.41
   3   8   1    8.16    1.41
   3   8   1    9.00    1.30
   3   8   1    7.93    1.18
  -3   8  -1    4.48    3.56
  -3   8  -1   10.37    1.48
  -4  -8  -1   34.67    3.05
  -4  -8  -1   34.33    3.60
  -4  -8  -1   23.99    5.07
   4  -8   1   28.46    3.22
   4  -8   1   36.14    4.08
   4  -8   1   37.44    3.77
   4  -8   1   31.82    3.35
   4  -8   1   30.91    3.23
  -4  -8  -1   32.77    2.80
   4  -8   1   27.79    3.16
  -4  -8  -1   36.86    2.84
   4   8   1   35.32    3.46
   4   8   1   34.68    3.12
  -4   8  -1   28.07    2.76
   4   8   1   33.52    3.00
  -5  -8  -1    7.29    1.22
   5  -8   1    9.62    1.66
   5  -8   1   11.03    2.19
  -5  -8  -1    9.85    1.23
   5  -8   1    9.06    1.85
  -5  -8  -1    9.35    1.47
   5  -8   1    6.39    1.56
   5   8   1    6.73    1.17
   5   8   1    9.44    1.69
   5   8   1    7.54    1.15
   5   8   1    9.47    1.58
  -6  -8  -1   12.70    1.58
  -6  -8  -1    9.42    1.53
   6  -8   1   14.29    2.12
   6  -8   1   14.30    1.91
   6   8   1   11.86    1.36
  -7  -8  -1    3.23    0.93
   7   8   1    2.81    0.96
  -6  -9   1    2.72    0.65
  -6  -9   1    2.48    0.72
   6  -9  -1    3.16    1.63
   6  -9  -1    4.69    1.13
   6   9  -1    2.53    0.71
   6   9  -1    3.07    0.84
   5  -9  -1    1.95    1.20
   5  -9  -1    2.37    1.22
   5  -9  -1    2.44    1.07
  -5  -9   1    2.48    0.96
   5   9  -1   -2.65    1.48
   4  -9  -1    6.38    2.29
  -4  -9   1    5.37    4.05
   4  -9  -1   13.45    2.06
  -4  -9   1    9.77    1.48
   4  -9  -1   11.44    2.15
   4  -9  -1    9.91    2.29
   4  -9  -1   10.75    1.66
  -4  -9   1   10.40    1.40
  -4   9   1    9.22    1.37
   4   9  -1   11.73    2.16
   4   9  -1    9.55    1.35
   4   9  -1    8.48    1.33
   3  -9  -1    9.45    1.65
  -3  -9   1   11.24    1.57
  -3  -9   1   10.06    1.41
   3  -9  -1    9.54    1.68
   3  -9  -1   14.19    2.55
   3  -9  -1   11.48    2.16
  -3  -9   1   12.01    2.13
   3   9  -1   12.09    1.72
   3   9  -1   12.13    1.64
  -3   9   1   11.20    1.53
   3   9  -1    7.96    1.28
   3   9  -1   10.76    1.46
  -2  -9   1    0.08    2.36
   2  -9  -1    1.76    1.33
   2  -9  -1    3.19    1.43
  -2  -9   1    3.51    1.37
   2  -9  -1    2.51    0.89
  -2  -9   1    2.82    0.82
   2  -9  -1    0.71    1.41
  -2   9   1    2.54    0.79
   2   9  -1    3.40    0.74
   2   9  -1   -0.34    2.61
  -2   9   1   -4.44    3.95
   2   9  -1    1.17    1.58
  -2   9   1    0.80    2.04
   2   9  -1    1.55    0.71
   1  -9  -1   26.16    2.26
  -1  -9   1   23.47    2.54
  -1  -9   1   24.24    2.30
   1  -9  -1   25.11    2.61
   1  -9  -1   22.60    2.37
   1  -9  -1   23.03    2.92
   1   9  -1   22.46    2.50
  -1   9   1   26.76    2.33
   1   9  -1   25.68    2.22
   1   9  -1   25.71    2.11
   1   9  -1   24.43    2.26
  -1   9   1   20.97    4.27
  -1   9   1   23.64    2.52
   0  -9  -1    3.67    1.03
   0  -9   1    2.88    1.70
   0  -9  -1    5.20    1.32
   0  -9   1    2.78    0.85
   0  -9  -1    3.15    0.86
   0  -9  -1    2.64    1.91
   0  -9   1    4.65    1.66
   0  -9   1    2.60    1.05
   0   9  -1    4.17    3.59
   0   9   1    2.33    0.95
   0   9  -1    2.24    0.91
   0   9   1    3.39    0.87
   0   9   1    4.10    0.93
   0   9  -1    3.19    0.84
   0   9   1    3.17    0.70
   0   9  -1    2.63    0.63
   0   9   1   -0.56    2.87
   0   9  -1   -1.14    2.88
   0   9   1    2.89    3.18
   0   9  -1    4.43    0.87
  -1  -9  -1   25.57    2.54
   1  -9   1   25.67    2.36
   1  -9   1   24.64    2.95
   1  -9   1   22.08    2.80
  -1  -9  -1   21.28    2.63
   1  -9   1   25.77    2.90
  -1  -9  -1   25.41    4.97
   1  -9   1   23.66    2.64
  -1  -9  -1   23.40    2.35
   1   9   1   25.44    2.43
  -1   9  -1   23.07    2.05
  -1   9  -1   23.34    2.36
   1   9   1   23.39    2.04
  -1   9  -1   23.91    2.24
  -1   9  -1   19.00    3.88
   1   9   1   24.05    2.13
   1   9   1   23.15    2.32
  -2  -9  -1    1.24    1.38
   2  -9   1    5.78    2.28
  -2  -9  -1   -0.94    1.90
   2  -9   1    1.49    1.74
  -2  -9  -1    2.89    1.28
   2  -9   1    4.45    1.60
  -2  -9  -1    1.69    0.85
  -2   9  -1    4.89    0.79
   2   9   1    1.24    1.48
   2   9   1    3.81    0.95
   2   9   1    2.13    3.22
   2   9   1    2.20    0.76
  -2   9  -1    1.98    0.87
   2   9   1    3.60    0.67
  -2   9  -1    3.11    0.93
   2   9   1    4.87    1.74
  -2   9  -1    3.38    1.38
  -2   9  -1    6.79    2.32
  -3  -9  -1    2.60    4.08
   3  -9   1    8.94    1.55
  -3  -9  -1    7.90    1.89
  -3  -9  -1   10.00    1.49
   3  -9   1   11.71    1.96
   3  -9   1    8.91    1.43
  -3  -9  -1   10.23    1.40
   3  -9   1    7.53    1.90
  -3   9  -1   11.61    1.38
   3   9   1    7.73    1.54
   3   9   1    9.83    1.30
  -3   9  -1    7.17    2.61
  -3   9  -1   10.24    1.55
  -4  -9  -1   10.54    1.61
   4  -9   1   12.78    2.14
   4  -9   1    8.31    1.59
   4  -9   1   10.20    1.77
  -4  -9  -1   13.25    1.59
  -4  -9  -1   14.49    1.45
   4  -9   1   11.52    1.70
   4  -9   1   10.96    2.00
   4  -9   1   12.93    2.73
  -4  -9  -1    6.98    4.43
   4   9   1   12.02    1.62
   4   9   1   10.66    2.24
  -4   9  -1   13.17    1.43
  -4   9  -1    8.77    1.46
   4   9   1   12.80    1.93
   5  -9   1    3.47    1.35
  -5  -9  -1    1.53    0.83
  -5  -9  -1   -0.15    1.44
   5  -9   1    1.40    1.14
  -5  -9  -1    1.91    1.23
   5  -9   1    2.81    1.37
   5  -9   1    3.30    1.13
   5   9   1    2.28    0.89
   6  -9   1    0.29    1.20
  -6  -9  -1    2.68    0.80
  -6  -9  -1    2.47    0.64
   6  -9   1    3.28    1.16
   6 -10  -1   11.15    1.77
   6  10  -1   12.19    1.20
   6  10  -1   11.03    1.23
  -5 -10   1    3.26    1.56
   5 -10  -1    3.04    1.12
   5 -10  -1    5.13    1.30
   5  10  -1    6.87    1.21
   5  10  -1    4.88    1.04
  -4 -10   1    5.26    2.27
   4 -10  -1    4.56    1.79
   4 -10  -1    6.01    1.32
  -4 -10   1    5.07    1.00
  -4 -10   1    6.94    1.60
   4 -10  -1    2.96    1.83
   4  10  -1    3.59    1.03
   4  10  -1    3.88    0.84
   3 -10  -1   19.21    3.52
   3 -10  -1   16.36    2.30
   3 -10  -1   16.34    2.82
  -3 -10   1   15.17    1.92
   3 -10  -1   14.37    2.31
   3 -10  -1   16.83    2.45
  -3 -10   1   17.27    2.81
  -3  10   1   18.62    2.17
  -3  10   1   19.95    1.75
   3  10  -1   17.99    2.55
   3  10  -1   15.06    1.89
   3  10  -1   17.07    1.69
   2 -10  -1   11.09    2.22
   2 -10  -1    7.38    1.61
   2 -10  -1    6.09    1.56
   2 -10  -1    8.50    1.16
  -2 -10   1    9.33    1.56
   2 -10  -1   10.23    1.72
   2 -10  -1    3.63    5.79
  -2 -10   1   11.17    1.65
   2  10  -1   10.82    1.21
  -2  10   1    9.49    1.48
  -2  10   1   11.79    1.72
  -2  10   1    9.20    1.36
   2  10  -1    9.16    1.44
   2  10  -1   14.35    2.40
   2  10  -1    8.94    1.14
   1 -10  -1   14.41    2.74
   1 -10  -1   16.76    3.06
   1 -10  -1   16.33    2.01
   1 -10  -1   21.66    3.27
   1 -10  -1   22.07    2.28
  -1 -10   1   21.86    3.55
  -1 -10   1   16.11    2.47
   1  10  -1   17.08    1.71
  -1  10   1   15.03    8.69
  -1  10   1   15.58    1.94
  -1  10   1   18.02    2.11
   1  10  -1   19.62    2.03
  -1  10   1   13.09    1.97
   1  10  -1   14.29    1.76
  -1  10   1   12.51    1.66
   1  10  -1   17.57    2.38
   0 -10  -1   -0.03    0.86
   0 -10  -1   -0.52    2.44
   0 -10   1    1.32    1.11
   0 -10   1    0.39    0.76
   0 -10  -1    0.22    2.84
   0 -10  -1    1.21    1.31
   0 -10   1    1.22    1.62
   0 -10   1   -2.77    2.53
   0  10   1   -0.92    0.81
   0  10  -1    1.49    0.80
   0  10   1    0.64    0.62
   0  10   1   -0.14    0.98
   0  10  -1   -0.22    1.09
   0  10  -1    1.51    0.75
   0  10   1   -7.28    4.98
   0  10  -1    1.46    0.63
   0  10   1    0.41    0.85
   1 -10   1   14.81    2.32
   1 -10   1   17.34    2.81
   1 -10   1   20.42    2.73
   1 -10   1   11.33    2.90
   1 -10   1   10.03    3.74
  -1  10  -1   14.57    3.67
  -1  10  -1   17.86    2.23
  -1  10  -1   16.97    1.71
   1  10   1   17.68    2.28
  -1  10  -1   18.18    1.77
   1  10   1   20.39    1.96
   1  10   1   16.33    1.74
  -1  10  -1   16.60    2.04
   1  10   1   14.69    2.36
   2 -10   1   10.63    1.74
   2 -10   1   11.63    2.09
   2 -10   1    8.13    1.59
   2 -10   1   10.98    2.22
  -2 -10  -1    8.68    1.60
  -2 -10  -1    9.32    2.53
   2  10   1    8.82    1.09
  -2  10  -1    7.56    1.18
   2  10   1    7.88    2.13
   2  10   1    8.13    1.05
  -2  10  -1    8.17    1.37
  -2  10  -1    8.96    1.41
   2  10   1    6.25    1.16
   3 -10   1   18.64    2.38
   3 -10   1   15.33    2.41
   3 -10   1   21.98    3.44
   3 -10   1   12.38    2.04
   3 -10   1   19.01    2.40
   3 -10   1   16.07    2.35
  -3 -10  -1   15.37    1.88
  -3 -10  -1   16.24    2.76
   3  10   1   16.78    2.49
  -3  10  -1   15.38    1.60
   3  10   1   14.69    1.78
   3  10   1   15.56    1.58
  -3  10  -1   14.81    2.06
  -3  10  -1   12.39    3.81
   4 -10   1    7.69    1.38
   4 -10   1    7.28    1.61
  -4 -10  -1    4.07    2.23
  -4 -10  -1    4.95    1.08
   4 -10   1    8.25    1.40
   4 -10   1   11.24    2.92
   4 -10   1    7.99    2.09
   4  10   1    6.26    1.13
   4  10   1    9.67    1.41
   5 -10   1    4.20    1.13
  -5 -10  -1    4.90    1.00
   5  10   1    2.62    0.86
   5  10   1    3.98    0.97
  -6 -10  -1   10.85    1.41
   6 -10   1    9.86    1.44
   6  10   1    6.45    1.00
   6  10   1    8.41    0.95
  -5 -11   1    3.23    0.76
   5 -11  -1    1.61    0.95
   5 -11  -1    2.87    1.10
   5  11  -1    4.54    1.48
   5  11  -1    2.35    0.60
   4 -11  -1    1.76    1.98
  -4 -11   1    1.84    1.92
   4 -11  -1    2.75    1.15
   4 -11  -1    2.68    1.17
   4 -11  -1    4.38    1.25
  -4 -11   1    3.54    0.96
   4  11  -1    2.49    0.88
   4  11  -1    2.64    1.17
   3 -11  -1    6.10    2.21
  -3 -11   1    7.45    1.69
   3 -11  -1    6.99    1.79
  -3 -11   1    5.63    1.13
   3  11  -1    3.74    0.97
   3  11  -1    5.86    0.84
   3  11  -1    6.16    1.65
   2 -11  -1   15.20    2.42
   2 -11  -1   16.45    2.55
  -2 -11   1   18.01    1.96
   2 -11  -1   16.32    1.98
  -2 -11   1   20.14    2.49
   2 -11  -1   12.15    2.57
   2  11  -1   17.41    1.75
  -2  11   1   18.49    1.88
  -2  11   1   21.33    2.21
  -2  11   1   21.45    2.60
   2  11  -1   17.69    1.92
   2  11  -1   21.40    4.82
   2  11  -1   16.78    1.77
   1 -11  -1    5.00    1.41
   1 -11  -1    5.72    1.12
   1 -11  -1    2.87    1.82
  -1 -11   1    4.57    1.08
   1 -11  -1    5.19    1.10
  -1 -11   1    3.25    1.22
   1 -11  -1    5.99    1.65
   1 -11  -1    4.82    1.39
  -1 -11   1    9.16    2.00
   1  11  -1    7.97    2.17
   1  11  -1    5.48    0.82
   1  11  -1    3.57    0.88
  -1  11   1    4.33    1.58
   1  11  -1    4.63    0.85
  -1  11   1    4.81    1.08
  -1  11   1    4.44    1.00
  -1  11   1    3.20    0.86
   0 -11   1   15.18    2.04
   0 -11  -1    9.19    2.24
   0 -11   1   12.53    1.96
   0 -11   1   13.15    1.82
   0 -11  -1   13.01    1.81
   0 -11  -1   12.09    1.88
   0  11   1   12.30    1.74
   0  11  -1   12.24    2.04
   0  11   1   13.79    1.57
   0  11  -1   13.80    1.59
   0  11   1   14.98    2.06
   0  11   1   11.11    1.43
   0  11  -1   11.16    1.37
   0  11  -1   11.55    1.39
   1 -11   1    4.24    1.45
  -1 -11  -1    5.77    1.24
   1 -11   1    5.96    1.25
   1 -11   1    5.51    1.09
  -1 -11  -1    4.96    1.21
   1 -11   1    7.55    2.23
   1  11   1    3.74    0.97
   1  11   1    6.60    2.14
  -1  11  -1    7.29    1.62
  -1  11  -1    4.94    0.92
  -1  11  -1    4.37    1.08
   1  11   1    4.51    0.91
  -1  11  -1    6.66    3.17
   2 -11   1   20.29    2.56
  -2 -11  -1   17.89    2.35
   2 -11   1   14.13    2.71
  -2 -11  -1   19.20    2.19
   2 -11   1   14.23    2.40
   2 -11   1   19.73    2.64
   2 -11   1   16.51    2.47
   2 -11   1   20.05    3.65
  -2  11  -1   15.67    1.81
   2  11   1   20.08    1.71
   2  11   1   19.16    1.80
  -2  11  -1   14.68    3.94
   2  11   1   17.32    1.98
  -2  11  -1   17.22    2.66
   2  11   1   22.36    3.84
   3 -11   1    0.79    3.28
   3 -11   1    5.53    1.63
  -3 -11  -1    5.89    1.49
  -3 -11  -1    3.14    1.02
   3  11   1    2.55    0.83
  -3  11  -1    5.45    0.92
   3  11   1    4.04    0.75
  -3  11  -1    1.44    1.38
   3  11   1    3.76    1.51
  -4 -11  -1    2.24    0.95
   4 -11   1    3.79    1.16
  -4 -11  -1    3.30    2.16
   4 -11   1    1.28    1.24
   4  11   1    1.28    1.06
   4  11   1    1.60    0.86
  -5 -11  -1    3.68    1.28
   5 -11   1    2.25    0.88
   5 -11   1    0.00    0.96
   5  11   1    3.18    0.86
   5  11   1    2.43    1.00
   4 -12  -1    4.89    1.09
   4 -12  -1    6.44    1.86
  -4 -12   1    7.79    1.81
  -4  12   1    7.66    1.21
   4  12  -1    9.46    1.33
   4  12  -1   10.44    1.40
   3 -12  -1    1.89    1.16
   3 -12  -1    2.09    1.03
   3 -12  -1    4.71    1.68
  -3 -12   1    2.92    0.98
  -3 -12   1    3.49    1.38
   3  12  -1    4.29    0.93
  -3  12   1    3.05    0.82
  -3  12   1    6.04    1.23
  -2 -12   1    2.35    0.96
   2 -12  -1    3.15    1.28
   2 -12  -1    4.29    1.29
   2 -12  -1    3.59    1.98
  -2 -12   1    8.23    2.76
   2 -12  -1    2.66    1.21
  -2  12   1    2.26    1.04
   2  12  -1    6.40    2.81
   2  12  -1    3.23    0.71
  -2  12   1    3.82    1.13
   1 -12  -1    9.00    3.51
   1 -12  -1    9.17    1.98
  -1 -12   1   13.97    1.85
  -1 -12   1   11.34    2.10
   1  12  -1   11.88    1.47
   1  12  -1   14.18    1.68
  -1  12   1   17.21    2.04
  -1  12   1   15.86    1.88
   1  12  -1   12.72    1.76
  -1  12   1   11.27    1.49
   0 -12   1   20.79    2.36
   0 -12  -1   20.95    2.40
   0 -12  -1   21.71    2.83
   0 -12   1   21.47    2.33
   0 -12  -1   21.94    2.39
   0  12  -1   19.58    1.85
   0  12  -1   21.34    2.02
   0  12   1   18.87    2.07
   0  12  -1   19.70    1.91
   0  12   1   18.33    2.00
   0  12   1   18.85    1.90
  -1 -12  -1   12.91    1.89
   1 -12   1    7.37    2.47
   1  12   1   11.88    1.64
   1  12   1    7.79    1.45
  -1  12  -1    9.99    1.31
  -1  12  -1   13.23    1.92
   1  12   1   11.94    1.30
   2 -12   1    6.16    2.59
   2 -12   1    8.66    2.59
   2 -12   1    3.81    1.20
  -2 -12  -1    3.45    1.26
  -2 -12  -1    4.52    1.73
  -2  12  -1    3.12    1.05
   2  12   1    5.84    2.60
   2  12   1    4.81    1.35
   2  12   1    4.04    0.76
   3 -12   1    0.83    1.32
  -3 -12  -1    4.86    1.46
   3 -12   1    1.98    1.05
  -3 -12  -1    2.80    1.09
  -3  12  -1    3.59    0.77
  -3  12  -1    1.73    1.10
   3  12   1    3.58    0.92
  -4 -12  -1    6.99    1.88
  -4 -12  -1    5.03    1.04
   4 -12   1    2.71    1.11
   4 -12   1    4.26    1.44
   4  12   1    5.93    1.12
   4  12   1    2.60    1.11
  -4  12  -1    4.55    0.74
  -3 -13   1    3.86    1.07
  -3 -13   1    5.85    1.30
   3 -13  -1    3.88    1.75
   3 -13  -1    1.92    0.89
   3  13  -1    6.56    1.51
  -3  13   1    4.02    0.75
  -3  13   1    2.19    1.27
  -2 -13   1    1.18    0.91
   2 -13  -1    0.95    1.40
   2 -13  -1    0.17    1.02
  -2 -13   1    1.04    1.02
  -2  13   1   -0.38    0.84
   2  13  -1    0.41    0.87
   2  13  -1    0.35    0.80
  -2  13   1    0.35    0.64
  -1 -13   1   19.03    3.94
  -1 -13   1   15.48    2.06
   1 -13  -1   17.44    1.87
   1 -13  -1   13.59    2.23
  -1 -13   1   20.67    2.15
  -1  13   1   16.38    1.96
  -1  13   1   13.46    1.56
  -1  13   1   14.96    1.67
   1  13  -1   13.75    1.47
   1  13  -1   16.33    1.50
   0 -13   1   14.10    1.89
   0 -13   1   10.58    1.78
   0 -13  -1   11.18    1.76
   0 -13  -1   10.40    1.67
   0 -13  -1   11.60    1.74
   0  13   1   10.66    1.32
   0  13   1   12.10    1.76
   0  13  -1   13.94    1.71
   0  13   1   11.29    1.44
   0  13  -1   10.07    1.35
   0  13  -1    8.16    1.38
   1 -13   1   19.66    1.89
  -1 -13  -1   13.87    2.01
  -1 -13  -1   14.70    2.08
   1 -13   1   13.48    2.25
  -1 -13  -1   16.27    2.54
   1 -13   1   16.39    2.41
   1  13   1   15.21    1.58
  -1  13  -1   16.73    1.62
   1  13   1   15.26    1.55
   1  13   1   18.95    1.89
  -1  13  -1   14.66    1.68
   2 -13   1   -0.19    1.33
   2 -13   1    0.81    1.04
  -2 -13  -1   -0.23    1.02
  -2 -13  -1    1.74    1.17
  -2 -13  -1    0.40    1.63
  -2  13  -1    1.13    0.97
   2  13   1    0.75    0.76
  -2  13  -1    0.55    0.60
   2  13   1    1.58    0.88
   3 -13   1    2.67    1.11
   3 -13   1    2.69    0.99
  -3 -13  -1    3.38    1.19
  -3  13  -1    3.18    0.73
   3  13   1    4.07    2.27
   3  13   1    5.84    1.33
  -2 -14   1    6.93    1.17
  -2 -14   1    7.65    1.14
  -2  14   1    5.68    0.94
  -2  14   1    5.73    0.94
   2  14  -1    7.24    0.86
   1 -14  -1    6.67    1.29
   1 -14  -1    3.65    1.48
  -1 -14   1    7.95    1.12
  -1  14   1    6.83    0.91
  -1  14   1    8.54    1.21
   1  14  -1    7.26    1.29
   1  14  -1    7.46    0.87
   0 -14  -1    1.20    0.86
   0 -14  -1    1.12    1.11
   0 -14   1    1.56    0.81
   0 -14   1    1.62    1.62
   0  14  -1    0.77    0.57
   0  14   1    2.52    0.82
   0  14   1    1.16    0.54
   0  14   1    1.38    0.61
  -1 -14  -1    6.48    1.07
  -1 -14  -1    8.26    1.38
  -1 -14  -1    7.99    1.51
   1 -14   1    9.72    1.56
   1 -14   1    4.90    1.25
  -1  14  -1    9.58    1.12
   1  14   1    7.82    1.06
  -1  14  -1    6.96    0.91
   2 -14   1    6.47    1.25
  -2 -14  -1    4.49    1.06
  -2 -14  -1    6.37    1.07
  -2 -14  -1    3.68    2.63
   2  14   1    4.99    0.95
  -2  14  -1    4.73    0.80
  -2  14  -1    6.01    0.90
   8   0  -2    0.51    0.44
   8   0  -2    0.68    0.81
   8   0  -2    0.44    0.94
   8   0  -2    0.77    0.58
   7   0  -2   22.39    2.73
  -7   0   2   24.59    2.36
   7   0  -2   29.13    2.35
   7   0  -2   31.00    2.75
   7   0  -2   31.73    3.09
   7   0  -2   21.29    2.82
   7   0  -2   29.06    2.42
  -6   0   2    4.50    0.72
   6   0  -2    3.51    1.12
   6   0  -2    5.84    0.97
   6   0  -2    3.84    1.31
  -6   0   2    4.46    0.90
   6   0  -2    3.37    1.22
   6   0  -2    4.55    0.82
  -6   0   2    4.89    1.09
   6   0  -2    3.27    1.00
  -5   0   2    2.34    0.73
  -5   0   2    0.48    1.15
   5   0  -2    3.28    1.10
   5   0  -2    0.72    1.22
   5   0  -2    1.83    0.91
   5   0  -2    3.15    0.92
  -5   0   2    2.16    0.44
   5   0  -2    2.85    1.01
   5   0  -2    3.16    0.89
   5   0  -2    1.62    0.59
   4   0  -2    9.59    1.27
  -4   0   2    9.08    1.03
  -4   0   2    9.97    1.01
   4   0  -2   11.53    1.25
   4   0  -2    8.78    1.55
  -3   0   2    3.68    0.55
  -3   0   2    3.44    0.66
   3   0  -2    3.11    1.22
   3   0  -2    3.74    0.73
  -3   0   2    4.75    0.69
   2   0  -2   41.00    4.14
  -2   0   2   44.04    3.13
   2   0  -2   40.84    3.30
  -2   0   2   42.70    3.19
  -2   0   2   42.77    4.13
  -2   0   2   40.44    3.56
   1   0  -2    8.56    1.61
  -1   0   2    6.70    0.72
   0   0   2   42.77    3.89
   0   0   2   56.21    3.88
   0   0  -2   56.59    4.23
   0   0  -2   51.11    3.88
   1   0   2   10.33    1.25
  -1   0  -2    8.41    0.91
   1   0   2    9.66    1.29
   1   0   2    9.04    0.83
  -2   0  -2   45.01    3.50
  -2   0  -2   43.55    3.52
   2   0   2   46.14    3.82
  -2   0  -2   51.51    4.15
  -3   0  -2    2.44    0.66
  -3   0  -2    2.91    0.53
  -3   0  -2    3.10    0.49
  -3   0  -2    2.98    1.03
   3   0   2    2.48    0.63
  -3   0  -2    2.82    0.70
  -4   0  -2    8.67    0.97
  -4   0  -2   14.08    2.59
   4   0   2   13.18    1.81
  -4   0  -2   11.01    1.14
  -4   0  -2   11.44    1.45
   4   0   2   10.67    1.37
   5   0   2    2.23    1.48
   5   0   2    3.24    1.09
   5   0   2    1.25    0.90
  -5   0  -2    0.73    0.97
   5   0   2    2.56    0.88
   5   0   2    1.47    1.02
   5   0   2    1.33    0.74
  -5   0  -2    1.84    0.51
  -5   0  -2    1.46    0.64
  -6   0  -2    3.70    0.63
   6   0   2    5.02    1.49
  -6   0  -2    1.00    2.25
  -6   0  -2    3.14    0.94
   6   0   2    3.49    0.92
  -6   0  -2    3.77    0.70
   6   0   2    4.63    1.13
   6   0   2    3.91    1.28
   6   0   2    2.53    1.11
   7   0   2   31.75    3.08
   7   0   2   34.62    3.13
   7   0   2   27.63    2.86
   7   0   2   30.24    2.97
   7   0   2   26.38    2.83
  -7   0  -2   29.95    2.46
  -7   0  -2   27.84    2.60
   8   0   2   -0.21    1.07
   8   0   2    1.47    0.95
   8   0   2    0.20    0.71
   8  -1  -2    7.06    1.11
   8  -1  -2    7.56    0.98
   8  -1  -2    6.71    0.78
  -8  -1   2    5.41    1.17
   8  -1  -2    8.49    1.58
   8   1  -2    9.41    1.47
   8   1  -2    7.38    0.99
   8   1  -2    6.73    1.11
   8   1  -2    7.85    1.09
   7  -1  -2    2.07    1.09
   7  -1  -2    3.47    0.77
   7  -1  -2    3.30    0.75
  -7  -1   2    3.14    0.69
   7  -1  -2    2.46    0.95
   7  -1  -2    3.29    1.22
   7   1  -2    2.25    1.01
   7   1  -2    3.22    1.20
   7   1  -2    3.26    1.25
   7   1  -2    2.80    0.78
   7   1  -2    2.89    0.79
  -6  -1   2    5.96    0.89
   6  -1  -2    6.20    0.95
  -6  -1   2    6.01    0.85
   6  -1  -2    3.50    1.26
   6  -1  -2    5.66    1.43
   6  -1  -2    6.55    1.22
   6  -1  -2    6.14    0.99
  -6  -1   2    6.34    1.20
  -6  -1   2    1.95    2.17
   6   1  -2    4.83    1.31
   6   1  -2    4.60    1.35
   6   1  -2    5.67    1.17
   6   1  -2    6.34    1.05
  -6   1   2    5.97    0.96
   6   1  -2    5.35    1.21
   6   1  -2    5.82    0.88
  -6   1   2    5.52    1.04
  -5  -1   2   11.01    1.35
   5  -1  -2   12.36    1.56
   5  -1  -2   10.82    1.47
   5  -1  -2   12.02    1.59
   5  -1  -2    9.59    1.70
  -5  -1   2   15.24    3.02
   5  -1  -2   10.03    1.47
   5  -1  -2    9.74    1.67
  -5   1   2   11.87    1.08
  -5   1   2   11.08    1.25
   5   1  -2   12.70    1.38
   5   1  -2    8.73    1.69
   5   1  -2   11.01    1.21
   5   1  -2   10.73    1.54
   5   1  -2    9.51    1.65
   5   1  -2   11.27    1.79
   4  -1  -2   24.92    2.39
  -4  -1   2   28.74    2.20
  -4  -1   2   25.82    2.19
  -4  -1   2   22.24    3.60
   4  -1  -2   28.41    2.25
   4  -1  -2   24.78    2.61
   4  -1  -2   28.47    2.28
   4   1  -2   25.59    2.30
  -4   1   2   25.92    1.91
   4   1  -2   24.76    2.46
  -4   1   2   24.97    2.05
  -4   1   2   24.66    1.98
   4   1  -2   24.54    2.06
   4   1  -2   20.17    2.35
   4   1  -2   23.73    2.10
  -3  -1   2   38.81    2.89
   3  -1  -2   35.76    4.17
   3  -1  -2   37.44    3.04
  -3  -1   2   36.50    2.92
  -3  -1   2   38.16    2.87
  -3   1   2   35.50    3.88
  -3   1   2   33.71    2.76
   3   1  -2   37.46    2.98
  -3   1   2   36.40    2.77
  -3   1   2   35.51    2.69
  -2  -1   2   47.54    4.53
  -2  -1   2   47.93    3.60
  -2  -1   2   47.42    3.63
   2  -1  -2   45.70    3.69
  -2  -1   2   50.03    3.59
  -2   1   2   45.16    3.32
   2   1  -2   45.50    3.49
  -2   1   2   37.04    3.32
   2   1  -2   48.65    3.35
  -1  -1   2   60.39    5.05
   1  -1  -2   61.06    5.13
  -1  -1   2   54.93    4.40
   1   1  -2   66.11    5.14
   1   1  -2   58.68    4.62
  -1   1   2   59.09    4.63
   1   1  -2   64.76    4.65
   0  -1   2  192.79   14.18
   0  -1  -2  199.16   14.54
   0  -1  -2  182.28   14.11
   0  -1  -2  186.83   14.09
   0  -1   2  209.02   14.54
   0  -1   2  178.50   14.12
   0   1  -2  174.74   13.04
   0   1  -2  179.00   13.53
   0   1   2  176.60   13.03
  -1  -1  -2   66.36    4.99
  -1  -1  -2   63.60    5.01
  -1  -1  -2   68.37    5.31
   1  -1   2   62.46    5.17
  -1  -1  -2   72.13    5.64
  -1   1  -2   68.60    5.43
  -1   1  -2   59.53    4.87
   1   1   2   65.35    4.95
   1   1   2   68.03    4.88
   2  -1   2   48.73    4.10
   2  -1   2   54.93    4.01
  -2  -1  -2   47.75    3.90
  -2  -1  -2   50.37    4.30
  -2  -1  -2   54.48    4.53
  -2  -1  -2   46.61    3.83
  -2   1  -2   48.29    3.75
   2   1   2   48.14    3.87
  -2   1  -2   53.17    4.35
  -3  -1  -2   40.80    3.80
  -3  -1  -2   34.65    3.02
  -3  -1  -2   36.75    2.86
  -3  -1  -2   39.85    3.62
  -3  -1  -2   34.18    2.91
   3  -1   2   38.10    3.03
   3   1   2   34.45    2.90
  -3   1  -2   35.42    3.36
  -3   1  -2   34.72    2.70
  -4  -1  -2   29.19    2.55
   4  -1   2   30.63    2.81
   4  -1   2   27.17    2.93
  -4  -1  -2   25.25    2.33
  -4  -1  -2   28.76    3.42
  -4  -1  -2   26.26    2.25
   4  -1   2   27.97    3.30
   4  -1   2   32.53    2.77
   4   1   2   35.16    2.96
  -4   1  -2   28.93    2.59
   4   1   2   29.71    2.62
  -4   1  -2   24.20    2.34
  -4   1  -2   26.31    3.34
   4   1   2   28.64    2.65
   4   1   2   29.09    3.21
   4   1   2   32.66    2.98
  -5  -1  -2   11.24    1.72
  -5  -1  -2   11.22    1.18
   5  -1   2   10.22    1.92
   5  -1   2   12.15    1.93
  -5  -1  -2   13.35    1.17
   5  -1   2   11.80    1.57
   5  -1   2   10.37    1.77
   5  -1   2   11.41    1.60
  -5  -1  -2   10.90    1.36
  -5   1  -2    9.82    0.98
   5   1   2   10.32    1.66
   5   1   2   10.43    1.81
   5   1   2   11.34    1.59
  -5   1  -2   11.04    1.64
   5   1   2   12.26    1.69
   5   1   2    8.83    1.19
  -5   1  -2   10.38    1.24
   6  -1   2    7.03    2.44
  -6  -1  -2    3.93    1.04
   6  -1   2    3.31    1.82
   6  -1   2    4.76    1.31
  -6  -1  -2    4.03    2.57
  -6  -1  -2    4.20    0.83
   6  -1   2    7.48    1.77
  -6  -1  -2    4.57    0.76
   6  -1   2    4.21    1.14
  -6   1  -2    4.03    0.85
   6   1   2    5.02    1.08
  -6   1  -2    5.95    1.01
  -6   1  -2    3.79    0.62
   6   1   2    4.70    1.14
   6   1   2    5.25    1.60
   6   1   2    3.27    0.86
   6   1   2    4.68    1.39
   6   1   2    5.36    1.37
   7  -1   2    2.35    1.24
   7  -1   2    3.56    1.86
  -7  -1  -2    2.70    0.60
   7  -1   2    2.65    1.21
  -7  -1  -2    2.92    0.74
   7  -1   2    1.85    1.32
   7   1   2    2.94    1.07
   7   1   2    3.20    1.32
   7   1   2    2.42    1.19
  -7   1  -2    2.18    0.56
   7   1   2    1.64    1.03
   7   1   2    3.01    0.86
   8  -1   2   12.51    1.91
  -8  -1  -2   15.45    1.61
   8   1   2    4.46    0.92
   8  -2  -2    4.45    0.98
   8  -2  -2    4.18    0.78
   8  -2  -2    5.44    1.06
   8  -2  -2    4.89    0.77
   8   2  -2    5.41    1.18
   8   2  -2    5.48    0.86
   8   2  -2    7.08    0.97
   8   2  -2    4.22    1.05
   7  -2  -2   10.51    1.50
   7  -2  -2   16.27    2.45
  -7  -2   2   15.56    1.58
   7  -2  -2   11.68    1.37
   7  -2  -2   14.88    2.07
   7  -2  -2   12.18    1.88
  -7  -2   2    9.21    1.35
   7   2  -2   12.35    1.39
   7   2  -2   12.76    1.74
   7   2  -2   11.80    1.72
   7   2  -2   12.83    2.10
   7   2  -2   12.10    1.82
   7   2  -2   11.77    1.56
  -7   2   2   16.59    1.68
  -6  -2   2   10.74    1.56
   6  -2  -2   12.63    1.49
  -6  -2   2   10.93    1.27
   6  -2  -2   11.07    2.08
  -6  -2   2   13.76    1.80
  -6  -2   2    6.96    2.89
   6  -2  -2   11.80    1.35
   6  -2  -2    9.46    1.69
   6  -2  -2    9.08    1.63
   6   2  -2   11.36    1.95
   6   2  -2   11.32    1.90
  -6   2   2   10.80    1.32
   6   2  -2    9.48    1.76
   6   2  -2   11.01    1.62
   6   2  -2   14.65    1.74
   6   2  -2   10.31    1.33
   5  -2  -2   11.39    1.54
   5  -2  -2   11.89    1.52
   5  -2  -2    7.24    1.57
  -5  -2   2   11.03    1.17
  -5  -2   2    8.32    2.34
   5  -2  -2   12.22    1.38
  -5  -2   2    9.28    1.32
  -5  -2   2    9.62    1.34
   5  -2  -2    9.33    1.33
   5  -2  -2   10.26    1.20
   5   2  -2    9.74    1.78
   5   2  -2   10.55    1.25
   5   2  -2    9.28    1.13
   5   2  -2    9.30    1.57
  -5   2   2   10.50    1.16
  -5   2   2    9.63    1.02
   4  -2  -2   14.17    1.85
  -4  -2   2   12.40    1.38
  -4  -2   2   13.97    2.28
   4  -2  -2   12.66    1.84
   4  -2  -2   12.47    3.38
   4  -2  -2   14.86    1.58
  -4  -2   2   13.48    1.29
  -4  -2   2   14.04    1.43
  -4  -2   2   16.98    1.31
  -4  -2   2   13.71    1.33
   4  -2  -2   13.65    1.41
   4  -2  -2   15.87    1.75
   4   2  -2   15.29    1.77
   4   2  -2   13.41    1.42
  -4   2   2   13.28    1.25
   4   2  -2   14.65    1.74
   4   2  -2   14.49    1.62
  -3  -2   2   20.76    1.88
   3  -2  -2   20.95    1.95
  -3  -2   2   23.10    3.00
  -3  -2   2   23.34    1.84
   3  -2  -2   21.66    2.12
  -3  -2   2   25.86    1.88
   3  -2  -2   23.13    3.27
   3   2  -2   19.19    1.70
  -3   2   2   17.82    1.38
  -3   2   2   12.88    1.42
   2  -2  -2  103.93    7.98
  -2  -2   2  118.51    7.94
   2  -2  -2  103.77    7.93
  -2  -2   2  103.44    7.87
  -2  -2   2  104.02    8.76
  -2  -2   2  106.87    7.89
   2  -2  -2  101.60    8.86
   2   2  -2   89.00    8.35
  -2   2   2   94.24    7.02
   2   2  -2  107.49    7.21
  -2   2   2   88.15    7.03
   1  -2  -2  262.57   18.54
  -1  -2   2  243.88   18.39
  -1  -2   2  222.31   17.76
  -1  -2   2  235.69   17.74
   1   2  -2  296.85   20.60
   1   2  -2  279.92   20.39
   1   2  -2  258.07   19.83
  -1   2   2  240.65   19.77
   0  -2  -2  426.05   31.79
   0  -2   2  445.78   32.16
   0  -2  -2  441.45   32.30
   0  -2   2  416.08   31.78
   0   2  -2  436.28   33.24
   0   2  -2  456.51   32.96
   0   2   2  436.10   32.42
   0   2  -2  435.09   32.42
  -1  -2  -2  260.64   21.02
  -1  -2  -2  283.57   21.07
  -1  -2  -2  312.71   21.07
   1   2   2  321.16   22.68
  -1   2  -2  268.70   22.61
  -1   2  -2  325.12   23.17
   1   2   2  314.82   22.64
  -2  -2  -2   92.41    7.04
  -2  -2  -2   86.60    7.00
   2  -2   2   94.40    7.30
  -2  -2  -2   91.18    7.72
  -2  -2  -2   95.44    6.96
  -2  -2  -2  100.90    7.66
   2   2   2   90.81    6.77
  -2   2  -2   93.90    6.75
  -2   2  -2   90.60    7.29
   2   2   2   88.16    6.87
   3  -2   2   25.75    2.54
  -3  -2  -2   25.03    2.14
  -3  -2  -2   25.17    3.09
   3  -2   2   27.19    2.26
  -3  -2  -2   26.79    3.14
   3   2   2   27.53    2.21
  -3   2  -2   20.85    2.05
  -3   2  -2   25.81    2.65
  -3   2  -2   22.58    1.91
   4  -2   2   10.27    1.42
  -4  -2  -2   10.33    1.12
   4  -2   2   13.76    1.67
   4  -2   2   11.12    1.86
  -4  -2  -2   13.92    1.53
   4  -2   2   14.21    1.70
  -4  -2  -2   10.50    1.25
   4  -2   2   12.79    1.85
  -4  -2  -2   12.55    1.20
   4   2   2   11.70    1.78
   4   2   2    8.46    1.39
  -4   2  -2   12.80    1.47
   4   2   2    9.42    1.41
   4   2   2   10.43    1.78
   4   2   2    9.73    1.65
   4   2   2    9.67    1.49
  -4   2  -2   10.73    1.05
   5  -2   2   12.95    1.86
  -5  -2  -2   11.20    2.40
  -5  -2  -2   10.73    1.45
  -5  -2  -2   12.36    1.32
   5  -2   2   13.61    2.02
   5  -2   2   15.34    1.98
   5  -2   2   13.40    1.94
  -5  -2  -2   12.83    1.79
   5   2   2   16.90    2.03
   5   2   2   14.41    1.81
  -5   2  -2   12.65    1.36
   5   2   2   13.15    1.42
  -5   2  -2    8.11    2.18
   5   2   2   15.46    2.06
  -5   2  -2   13.40    1.88
   5   2   2   12.63    1.86
  -6  -2  -2   12.85    1.76
   6  -2   2   14.37    2.21
   6  -2   2   17.70    2.40
  -6  -2  -2   15.84    1.88
   6  -2   2   15.09    2.23
  -6  -2  -2   12.06    3.81
   6  -2   2   14.91    2.56
  -6  -2  -2   12.70    1.57
  -6  -2  -2   13.36    1.44
   6   2   2   15.04    2.03
   6   2   2   12.62    2.01
   6   2   2   13.94    2.24
   6   2   2   13.57    2.39
   6   2   2   11.70    1.80
   6   2   2   14.50    1.91
   6   2   2   15.65    1.74
  -6   2  -2   11.23    1.57
  -7  -2  -2   10.88    1.18
   7  -2   2    9.03    1.74
   7  -2   2   10.01    1.72
   7  -2   2    8.73    1.71
  -7  -2  -2   10.56    1.40
   7  -2   2    8.32    1.52
   7   2   2    8.30    1.41
   7   2   2    5.20    1.14
   7   2   2    5.61    1.18
   7   2   2    4.20    1.05
   8  -2   2    3.87    0.89
   8  -2   2    5.34    0.98
   8  -2   2    4.80    1.59
   8   2   2    5.11    0.89
   8   2   2    4.24    0.95
   8  -3  -2    0.26    0.85
   8  -3  -2    0.68    0.88
   8  -3  -2    1.75    1.41
  -8  -3   2    0.73    0.63
   8   3  -2    2.14    0.57
   8   3  -2    1.09    0.86
   8   3  -2    0.18    0.75
   7  -3  -2    2.99    0.67
   7  -3  -2    3.55    1.23
  -7  -3   2    2.71    0.72
   7  -3  -2    2.34    0.75
   7  -3  -2    2.54    1.12
   7   3  -2    1.20    1.65
   7   3  -2    3.94    0.77
   7   3  -2    4.15    1.27
   7   3  -2    2.37    1.07
   7   3  -2    3.84    0.89
   6  -3  -2    1.98    1.12
   6  -3  -2   -0.79    3.10
  -6  -3   2    1.60    0.66
   6  -3  -2    2.66    0.77
   6  -3  -2    1.88    1.33
   6  -3  -2    2.86    0.76
   6  -3  -2    2.50    1.13
  -6  -3   2    3.44    2.36
  -6  -3   2    2.12    1.16
   6  -3  -2    1.01    1.51
   6  -3  -2    1.23    0.92
   6   3  -2    1.78    0.92
   6   3  -2    2.68    1.12
   6   3  -2    1.28    1.19
   6   3  -2    3.20    1.13
   6   3  -2    1.85    0.72
   6   3  -2    2.41    0.68
   5  -3  -2   16.89    1.62
  -5  -3   2   17.41    1.80
   5  -3  -2   16.67    1.98
   5  -3  -2   15.46    1.93
  -5  -3   2   15.23    1.54
   5  -3  -2   15.26    1.98
  -5  -3   2   15.65    1.57
   5  -3  -2   18.24    2.58
   5  -3  -2   16.31    1.71
  -5  -3   2   17.71    1.54
  -5  -3   2   15.72    3.34
  -5  -3   2   15.13    2.07
   5   3  -2   11.99    2.07
   5   3  -2   13.59    2.00
   5   3  -2   15.78    1.66
  -5   3   2   16.02    1.43
   5   3  -2    9.84    1.64
   5   3  -2   15.96    1.85
   4  -3  -2   21.13    3.46
   4  -3  -2   20.34    2.14
  -4  -3   2   21.78    1.81
  -4  -3   2   20.09    3.78
  -4  -3   2   20.72    3.04
   4  -3  -2   21.73    2.56
   4  -3  -2   19.71    2.08
  -4  -3   2   24.10    1.95
   4  -3  -2   21.39    1.94
  -4  -3   2   22.53    1.80
  -4  -3   2   22.32    1.99
   4  -3  -2   19.57    1.88
   4  -3  -2   19.14    1.92
  -4  -3   2   19.98    1.77
   4   3  -2   15.28    2.60
  -4   3   2   19.19    1.53
   4   3  -2   18.91    1.95
   4   3  -2   19.36    2.00
  -3  -3   2   44.02    3.60
  -3  -3   2   44.91    3.56
  -3  -3   2   47.06    3.64
  -3  -3   2   50.49    4.70
   3  -3  -2   45.20    3.70
   3  -3  -2   46.96    3.84
  -3  -3   2   46.48    4.95
  -3   3   2   41.60    4.10
   3   3  -2   47.17    3.56
   3   3  -2   40.89    3.37
  -3   3   2   42.24    3.24
   2  -3  -2  129.11    9.50
  -2  -3   2  144.20   11.41
  -2  -3   2  132.07    9.53
   2  -3  -2  122.86   10.57
  -2  -3   2  140.57   10.41
   2  -3  -2  124.45    9.62
  -2  -3   2  103.30    9.49
   2   3  -2  132.51   10.26
  -2   3   2   99.05    8.71
   2   3  -2  126.82    8.90
   2   3  -2  105.21    8.75
  -2   3   2  124.30    9.17
  -2   3   2  107.43    8.70
   2   3  -2  131.97   10.12
  -1  -3   2   58.08    4.62
   1  -3  -2   55.45    5.50
  -1  -3   2   61.81    5.32
  -1  -3   2   66.34    4.70
  -1  -3   2   63.29    5.41
   1   3  -2   61.81    4.37
  -1   3   2   61.12    4.94
  -1   3   2   50.58    4.31
  -1   3   2   52.64    4.36
   1   3  -2   59.68    5.14
   1   3  -2   60.87    5.50
   0  -3   2   60.11    4.94
   0  -3   2   52.24    4.95
   0  -3  -2   62.92    4.43
   0  -3   2   58.29    4.41
   0  -3  -2   58.29    5.21
   0   3  -2   61.53    5.14
   0   3  -2   56.09    4.37
   0   3   2   53.06    4.36
   0   3  -2   59.26    5.47
   0   3   2   57.21    4.37
   0   3   2   62.24    5.32
  -1  -3  -2   53.06    4.34
  -1  -3  -2   59.75    5.10
  -1  -3  -2   58.33    5.08
   1  -3   2   58.51    4.60
   1  -3   2   54.74    4.61
  -1  -3  -2   58.01    4.35
  -1   3  -2   55.33    4.21
  -1   3  -2   55.76    4.90
   1   3   2   55.62    4.27
  -1   3  -2   56.78    5.56
   1   3   2   56.32    4.24
  -2  -3  -2   99.68    7.79
  -2  -3  -2  100.89    8.55
  -2  -3  -2  110.55    7.89
  -2   3  -2  106.33    8.35
   2   3   2   89.03    7.80
  -2   3  -2  110.60    7.70
   2   3   2  108.78    7.74
  -3  -3  -2   43.78    3.08
  -3  -3  -2   37.09    3.03
  -3  -3  -2   39.43    2.96
  -3  -3  -2   41.06    3.11
   3  -3   2   38.63    3.52
  -3  -3  -2   29.83    3.93
  -3  -3  -2   31.04    4.56
   3   3   2   35.32    2.97
  -3   3  -2   34.21    2.88
  -3   3  -2   35.90    3.46
   4  -3   2   21.28    2.24
  -4  -3  -2   18.50    3.22
  -4  -3  -2   19.74    1.83
  -4  -3  -2   25.35    2.14
   4  -3   2   21.07    2.58
  -4  -3  -2   22.33    2.12
  -4  -3  -2   22.66    1.83
  -4  -3  -2   15.90    3.64
   4   3   2   24.35    2.96
   4   3   2   23.70    2.21
   4   3   2   24.51    2.41
   4   3   2   21.27    2.94
   4   3   2   24.23    2.66
  -4   3  -2   16.97    3.23
  -4   3  -2   19.86    1.81
   4   3   2   19.66    1.86
   4   3   2   21.91    2.14
   5  -3   2   18.53    2.62
  -5  -3  -2   20.04    2.06
   5  -3   2   21.71    2.43
  -5  -3  -2   17.93    1.78
   5  -3   2   21.95    2.98
   5  -3   2   22.74    2.43
  -5  -3  -2   19.12    2.44
  -5  -3  -2   20.45    3.82
  -5  -3  -2   20.91    2.37
  -5  -3  -2   18.19    1.78
   5  -3   2   17.59    2.54
   5   3   2   21.08    2.35
   5   3   2   25.64    2.78
   5   3   2   20.95    2.16
  -5   3  -2   20.99    2.41
   5   3   2   23.71    2.42
   5   3   2   23.05    2.54
  -5   3  -2   18.24    1.90
  -6  -3  -2    1.88    0.63
   6  -3   2    2.83    1.25
  -6  -3  -2    1.65    1.21
   6  -3   2    1.67    1.51
   6  -3   2    2.70    1.40
  -6  -3  -2    1.55    1.02
   6  -3   2    2.52    1.20
  -6  -3  -2   -0.19    2.29
  -6   3  -2    0.93    0.81
   6   3   2    2.81    1.12
   6   3   2    1.07    1.08
  -6   3  -2    0.74    3.34
   6   3   2    1.82    0.60
   6   3   2    0.19    1.10
   6   3   2    1.99    1.10
   6   3   2    2.86    1.41
   6   3   2    1.22    0.81
   6   3   2    2.68    0.98
  -7  -3  -2    3.55    0.71
   7  -3   2    2.80    1.10
  -7  -3  -2    3.57    0.93
   7  -3   2    3.31    1.43
   7  -3   2    4.21    1.23
  -7  -3  -2    4.44    0.88
   7  -3   2    4.52    1.48
   7   3   2    2.50    0.96
   7   3   2    3.62    0.85
   7   3   2    1.69    0.74
  -7   3  -2    1.01    0.60
   8  -3   2    1.54    0.94
   8  -3   2    1.48    1.18
   8  -3   2    0.80    0.92
  -8  -3  -2    2.15    0.59
   8   3   2    1.06    0.68
   8   3   2    1.00    0.47
   7  -4  -2    8.76    1.05
   7  -4  -2    9.82    2.00
   7  -4  -2   11.42    1.62
   7  -4  -2    7.17    1.37
   7  -4  -2    7.68    1.05
  -7  -4   2    8.16    1.27
   7   4  -2   10.02    1.87
   7   4  -2    6.92    2.13
   7   4  -2    9.09    1.13
   7   4  -2   10.27    1.50
   7   4  -2   10.33    1.36
  -6  -4   2   15.94    2.37
  -6  -4   2   19.47    4.02
   6  -4  -2   16.58    1.66
   6  -4  -2   14.70    2.43
  -6  -4   2   16.58    1.65
   6  -4  -2   14.54    2.14
  -6  -4   2   17.30    1.78
   6  -4  -2   14.36    1.76
   6  -4  -2   18.92    3.04
   6   4  -2   16.86    2.18
   6   4  -2   15.42    1.57
   6   4  -2   16.41    1.74
   6   4  -2   14.80    2.27
   5  -4  -2    9.48    1.25
   5  -4  -2    9.63    2.14
   5  -4  -2   12.67    1.84
   5  -4  -2    6.09    1.41
  -5  -4   2    8.34    1.13
  -5  -4   2    6.10    2.65
  -5  -4   2   12.45    1.54
  -5  -4   2    7.09    1.13
  -5  -4   2    9.46    1.18
  -5  -4   2   11.55    2.76
   5  -4  -2    9.16    1.38
  -5  -4   2   11.05    1.84
   5   4  -2   13.13    1.89
   5   4  -2   13.27    1.99
   5   4  -2   12.14    1.60
   5   4  -2   10.79    1.34
   5   4  -2   10.47    1.84
  -4  -4   2   17.30    3.75
  -4  -4   2   14.04    2.75
  -4  -4   2   13.36    1.38
  -4  -4   2   13.72    1.54
  -4  -4   2   14.22    1.37
   4  -4  -2   14.80    1.57
  -4  -4   2   14.18    1.61
   4  -4  -2   16.37    1.77
  -4  -4   2   14.71    1.35
   4  -4  -2   11.86    1.88
   4  -4  -2   13.42    1.46
   4  -4  -2   13.55    2.18
  -4   4   2   12.66    1.15
   4   4  -2   11.60    1.56
   4   4  -2   12.17    1.90
   4   4  -2   11.78    1.41
  -3  -4   2    7.44    1.64
   3  -4  -2    7.79    1.01
  -3  -4   2    9.97    0.97
  -3  -4   2   10.74    1.99
  -3  -4   2    8.30    0.99
  -3  -4   2   10.15    1.15
   3   4  -2    7.60    2.01
  -3   4   2    7.15    2.22
  -3   4   2    8.20    1.20
  -3   4   2    9.33    0.85
   3   4  -2    9.36    1.02
   2  -4  -2   43.61    3.39
  -2  -4   2   37.64    3.04
  -2  -4   2   33.67    3.91
  -2  -4   2   42.03    3.12
  -2  -4   2   38.38    3.03
   2  -4  -2   40.20    4.41
   2   4  -2   45.19    3.16
   2   4  -2   37.62    3.17
  -2   4   2   43.55    4.04
   2   4  -2   40.89    4.45
   2   4  -2   35.58    3.24
   2   4  -2   37.37    5.04
  -1  -4   2   50.80    3.85
   1  -4  -2   49.01    4.94
  -1  -4   2   54.29    5.22
  -1  -4   2   47.33    3.86
  -1  -4   2   52.06    4.65
  -1  -4   2   47.25    3.79
  -1   4   2   45.17    3.57
   1   4  -2   43.75    4.52
  -1   4   2   44.69    3.60
   1   4  -2   45.48    3.64
   1   4  -2   47.89    5.19
  -1   4   2   51.16    4.90
   1   4  -2   53.37    3.75
   0  -4  -2   56.80    4.10
   0  -4  -2   54.35    4.10
   0  -4   2   57.05    4.82
   0  -4   2   47.20    4.82
   0  -4   2   53.79    4.10
   0  -4  -2   52.74    5.04
   0   4   2   51.80    4.01
   0   4   2   51.44    4.01
   0   4   2   50.51    5.18
   0   4  -2   58.56    4.95
   0   4  -2   54.87    5.50
   0   4  -2   50.37    4.01
  -1  -4  -2   42.93    4.18
  -1  -4  -2   39.91    3.25
  -1  -4  -2   41.64    3.27
   1  -4   2   44.72    3.80
  -1  -4  -2   35.26    4.17
  -1  -4  -2   43.34    3.19
   1   4   2   41.27    4.64
  -1   4  -2   49.87    4.36
   1   4   2   42.06    3.37
   1   4   2   39.21    3.38
  -1   4  -2   46.88    4.94
  -2  -4  -2   53.81    5.34
   2  -4   2   42.74    4.24
  -2  -4  -2   52.27    3.91
  -2  -4  -2   45.63    3.80
  -2  -4  -2   46.74    3.70
  -2  -4  -2   50.36    5.01
  -2   4  -2   37.34    3.36
   2   4   2   44.58    3.44
  -2   4  -2   45.24    4.20
   2   4   2   49.95    3.55
  -3  -4  -2    7.90    0.99
  -3  -4  -2    8.07    0.91
  -3  -4  -2    7.79    1.14
   3  -4   2    8.58    1.74
  -3  -4  -2    7.90    1.16
  -3   4  -2    6.08    2.12
   3   4   2   10.16    1.56
  -3   4  -2    8.84    0.89
  -4  -4  -2   14.78    1.87
   4  -4   2   17.26    2.36
  -4  -4  -2   14.25    1.52
  -4  -4  -2   17.94    1.77
   4  -4   2   21.92    2.39
   4  -4   2   14.13    2.18
   4  -4   2   14.89    2.31
  -4  -4  -2   14.04    1.48
   4  -4   2   21.26    3.15
  -4  -4  -2   15.45    1.90
   4  -4   2   20.62    2.65
   4  -4   2   18.33    2.74
  -4  -4  -2   16.66    3.17
  -4   4  -2   16.25    1.61
   4   4   2   16.52    1.95
   4   4   2   18.79    2.13
   4   4   2   18.15    2.25
   4   4   2   16.28    1.72
  -4   4  -2   16.01    2.84
   4   4   2   22.06    2.85
   4   4   2   19.73    1.90
   4   4   2   21.89    2.31
   5  -4   2   10.72    1.64
  -5  -4  -2    6.61    1.23
   5  -4   2    7.16    1.51
  -5  -4  -2    9.98    1.18
  -5  -4  -2    8.46    1.68
   5  -4   2   10.46    2.63
  -5  -4  -2    7.95    1.05
  -5  -4  -2   10.41    1.41
   5  -4   2    6.66    1.67
   5  -4   2    6.47    1.65
   5  -4   2   11.55    1.97
   5   4   2    8.70    1.51
  -5   4  -2    5.62    1.57
   5   4   2    4.28    1.49
  -5   4  -2    2.83    2.01
   5   4   2    9.24    1.56
   5   4   2    5.74    1.27
   5   4   2    5.78    0.94
  -5   4  -2    7.13    1.02
   5   4   2    5.76    1.38
  -6  -4  -2   16.88    2.24
  -6  -4  -2   16.48    1.79
  -6  -4  -2   16.64    1.70
  -6  -4  -2   12.89    3.19
   6  -4   2   16.06    2.31
   6  -4   2   13.88    2.30
   6  -4   2   18.44    2.69
   6  -4   2   20.50    2.71
   6   4   2   14.38    1.93
  -6   4  -2   16.54    1.46
   6   4   2   16.16    2.29
   6   4   2   16.54    1.65
  -6   4  -2   12.50    1.90
   6   4   2   14.99    2.40
   6   4   2   19.65    2.73
  -7  -4  -2    6.18    0.99
  -7  -4  -2    3.90    0.85
   7  -4   2    4.39    1.55
   7  -4   2    2.77    1.21
   7  -4   2    4.03    1.19
   7   4   2    3.05    0.95
  -7  -5   2    3.57    0.73
  -7  -5   2    3.65    0.71
   7  -5  -2    2.80    1.11
   7  -5  -2    1.83    0.71
   7  -5  -2    1.82    0.72
   7   5  -2    3.47    1.74
   7   5  -2    5.34    0.97
   7   5  -2    2.81    1.09
   7   5  -2    2.84    1.14
   7   5  -2    4.52    0.78
   7   5  -2    4.00    1.29
  -6  -5   2   20.01    4.08
   6  -5  -2   20.47    2.09
  -6  -5   2   21.49    2.02
  -6  -5   2   24.89    3.56
  -6  -5   2   22.11    1.99
   6  -5  -2   22.68    2.79
   6  -5  -2   23.68    3.42
   6  -5  -2   21.85    2.03
   6   5  -2   22.36    2.10
   6   5  -2   24.95    2.67
   6   5  -2   23.12    2.22
   6   5  -2   26.90    2.96
   6   5  -2   25.20    2.81
  -5  -5   2   37.93    2.97
  -5  -5   2   35.15    3.63
  -5  -5   2   43.71    5.20
   5  -5  -2   34.74    3.88
  -5  -5   2   35.98    2.94
   5  -5  -2   35.83    3.02
   5  -5  -2   35.30    3.87
  -5  -5   2   37.20    2.93
   5  -5  -2   38.06    2.96
   5  -5  -2   26.96    3.34
   5  -5  -2   27.49    3.25
  -5  -5   2   45.07    3.99
   5   5  -2   42.43    3.50
   5   5  -2   40.22    3.57
   5   5  -2   45.80    4.36
   5   5  -2   43.30    3.87
   5   5  -2   39.04    3.63
   5   5  -2   50.52    3.95
  -4  -5   2   21.38    2.01
  -4  -5   2   20.83    2.31
   4  -5  -2   18.61    2.34
   4  -5  -2   18.19    2.12
   4  -5  -2   21.69    1.89
   4  -5  -2   18.44    1.77
  -4  -5   2   18.65    1.74
  -4  -5   2   17.36    1.68
   4  -5  -2   18.63    2.30
  -4  -5   2   17.74    4.58
   4  -5  -2   20.04    3.28
   4  -5  -2   13.59    2.13
  -4  -5   2   18.39    1.66
   4   5  -2   17.30    1.96
   4   5  -2   18.03    1.75
   4   5  -2   15.93    1.91
   4   5  -2   16.36    2.21
   4   5  -2   17.66    1.71
   3  -5  -2   26.65    2.63
  -3  -5   2   25.80    2.15
   3  -5  -2   23.89    2.86
  -3  -5   2   25.83    2.14
  -3  -5   2   28.23    2.32
  -3  -5   2   30.27    3.78
  -3  -5   2   27.35    2.31
   3  -5  -2   31.92    2.71
   3  -5  -2   28.46    6.37
  -3  -5   2   24.04    2.20
  -3  -5   2   23.40    3.73
   3  -5  -2   21.57    2.60
   3   5  -2   28.47    2.52
   3   5  -2   27.24    2.21
   3   5  -2   25.56    2.40
   3   5  -2   20.08    4.56
  -3   5   2   26.15    2.02
  -2  -5   2   15.14    1.62
  -2  -5   2   13.53    2.77
  -2  -5   2   11.71    2.29
  -2  -5   2   11.01    1.44
   2  -5  -2   10.14    2.57
   2  -5  -2   12.12    1.70
  -2  -5   2   10.91    1.12
   2   5  -2   10.11    3.08
  -2   5   2   12.05    1.13
   2   5  -2   12.61    2.96
  -2   5   2   11.49    2.02
   2   5  -2   13.15    1.41
  -2   5   2   11.85    1.10
   2   5  -2   14.74    1.46
   2   5  -2   11.45    1.30
  -1  -5   2   45.48    3.40
  -1  -5   2   43.37    3.40
  -1  -5   2   38.99    3.29
  -1  -5   2   45.38    4.51
   1  -5  -2   42.66    4.58
  -1  -5   2   43.01    4.57
   1   5  -2   41.35    5.08
  -1   5   2   43.90    4.71
   1   5  -2   42.99    3.47
   1   5  -2   48.83    4.60
   1   5  -2   42.24    3.33
   1   5  -2   45.79    3.43
  -1   5   2   41.30    3.34
   0  -5  -2    5.11    0.80
   0  -5  -2    4.24    1.36
   0  -5   2    5.75    0.82
   0  -5   2    5.71    0.85
   0  -5   2    3.65    1.10
   0  -5  -2    6.38    0.91
   0   5  -2    6.32    1.61
   0   5   2    4.14    1.42
   0   5  -2    3.67    1.54
  -1  -5  -2   39.22    4.38
   1  -5   2   44.87    4.08
  -1  -5  -2   38.76    3.19
  -1  -5  -2   42.52    3.33
  -1  -5  -2   42.62    4.39
   1   5   2   42.35    5.07
  -1   5  -2   44.88    4.31
   1   5   2   44.90    3.40
  -1   5  -2   46.45    7.42
   1   5   2   38.94    3.31
  -2  -5  -2   11.19    1.28
  -2  -5  -2   10.72    1.08
  -2  -5  -2   10.18    1.09
   2  -5   2   10.02    1.74
  -2   5  -2   12.28    2.25
   2   5   2   10.96    1.28
  -2   5  -2    7.90    2.23
   2   5   2   10.96    1.40
   2   5   2   11.14    1.22
   2   5   2   10.71    1.02
  -2   5  -2   11.51    1.08
  -3  -5  -2   24.30    3.97
  -3  -5  -2   18.17    2.63
  -3  -5  -2   24.72    2.08
   3  -5   2   22.27    2.71
   3  -5   2   27.63    2.62
   3  -5   2   26.23    3.04
  -3  -5  -2   21.02    3.54
   3  -5   2   26.90    2.52
  -3  -5  -2   25.33    2.28
  -3  -5  -2   26.12    2.30
   3  -5   2   26.27    2.86
  -3  -5  -2   25.90    2.07
  -3   5  -2   34.63    6.22
   3   5   2   21.44    2.43
   3   5   2   23.61    2.27
   3   5   2   24.96    2.79
   3   5   2   25.46    2.30
  -3   5  -2   23.47    1.99
  -4  -5  -2   20.03    2.10
  -4  -5  -2   19.71    2.21
   4  -5   2   18.25    2.87
  -4  -5  -2   25.32    3.85
   4  -5   2   23.03    2.33
   4  -5   2   18.84    2.49
  -4  -5  -2   21.88    2.12
   4  -5   2   19.34    2.34
  -4  -5  -2   20.19    1.84
   4  -5   2   20.99    2.81
   4  -5   2   18.61    2.69
  -4  -5  -2   19.78    1.87
   4   5   2   23.15    2.94
  -4   5  -2   18.83    1.78
   4   5   2   24.66    2.45
  -4   5  -2   15.09    4.18
   4   5   2   19.51    2.15
  -4   5  -2   17.59    3.13
   4   5   2   20.80    2.11
   4   5   2   22.75    2.52
   5  -5   2   23.01    2.82
  -5  -5  -2   29.25    2.46
  -5  -5  -2   26.49    2.86
  -5  -5  -2   33.33    2.54
   5  -5   2   26.11    3.30
   5  -5   2   33.48    3.57
  -5  -5  -2   25.74    4.83
  -5  -5  -2   29.47    3.12
   5  -5   2   26.64    3.58
  -5  -5  -2   29.16    3.11
   5   5   2   29.92    3.00
  -5   5  -2   21.28    4.01
   5   5   2   23.70    3.24
   5   5   2   31.62    2.82
   5   5   2   23.32    2.46
   5   5   2   30.86    2.45
   6  -5   2   18.37    2.40
  -6  -5  -2   19.47    2.58
  -6  -5  -2   19.79    1.98
  -6  -5  -2   21.72    1.99
   6  -5   2   21.55    2.70
   6  -5   2   28.23    3.60
  -6  -5  -2   15.48    3.59
  -6  -5  -2   21.46    2.23
   6  -5   2   29.29    4.06
   6  -5   2   20.24    2.73
   6   5   2   12.30    1.73
  -6   5  -2   15.25    1.56
   6   5   2   19.29    3.00
   6   5   2   19.91    2.20
   6   5   2   17.31    2.30
   7  -5   2    7.06    1.36
  -7  -5  -2    4.53    0.80
  -7  -5  -2    5.34    0.79
   7  -5   2    5.77    3.01
   7  -5   2    3.96    1.34
  -7  -5  -2    4.51    0.90
   7   5   2    6.64    1.08
   7   5   2    3.78    1.18
  -7  -6   2   10.66    1.19
  -7  -6   2    9.32    1.13
   7  -6  -2    8.58    1.31
   7   6  -2    9.89    1.23
   7   6  -2    7.97    1.19
   7   6  -2    6.15    1.00
   7   6  -2    8.91    1.39
  -6  -6   2    3.04    0.70
   6  -6  -2    2.49    0.82
  -6  -6   2    3.26    0.73
   6  -6  -2    3.01    0.80
  -6  -6   2    3.22    1.01
   6  -6  -2    4.93    1.46
   6  -6  -2    3.01    1.13
   6   6  -2    3.10    1.01
   6   6  -2    2.66    0.73
   6   6  -2    1.69    0.55
   5  -6  -2   27.56    3.25
   5  -6  -2   33.98    3.09
  -5  -6   2   30.99    2.63
   5  -6  -2   31.66    2.65
  -5  -6   2   25.25    6.58
   5  -6  -2   32.87    2.68
   5  -6  -2   35.81    3.07
  -5  -6   2   30.08    2.63
  -5  -6   2   28.69    3.07
   5  -6  -2   24.73    3.66
   5   6  -2   30.61    2.56
   5   6  -2   28.31    3.02
   5   6  -2   30.08    2.93
   5   6  -2   30.07    2.60
   5   6  -2   28.21    2.89
   5   6  -2   28.45    2.85
   4  -6  -2   23.10    2.44
  -4  -6   2   24.89    5.35
   4  -6  -2   18.28    2.55
   4  -6  -2   18.40    3.15
   4  -6  -2   21.11    2.03
   4  -6  -2   24.02    2.07
  -4  -6   2   21.50    1.90
  -4  -6   2   21.55    2.33
  -4  -6   2   21.05    2.02
  -4  -6   2   25.47    2.30
   4  -6  -2   19.84    2.79
   4  -6  -2   17.18    2.82
  -4  -6   2   26.45    5.95
  -4  -6   2   23.55    1.95
   4   6  -2   27.30    2.82
   4   6  -2   21.89    2.24
  -4   6   2   21.26    1.99
   4   6  -2   26.40    2.51
  -4   6   2   24.24    2.10
   4   6  -2   25.32    2.40
   4   6  -2   29.89    2.58
   3  -6  -2   10.68    1.36
  -3  -6   2    8.98    1.02
   3  -6  -2    9.79    1.85
   3  -6  -2    7.24    1.19
   3  -6  -2    9.93    1.65
   3  -6  -2   11.88    2.03
  -3  -6   2    8.48    1.34
  -3  -6   2    5.56    2.01
  -3  -6   2    9.44    1.33
  -3   6   2    8.60    0.92
   3   6  -2    9.16    1.31
   3   6  -2    9.76    1.16
   3   6  -2    6.65    3.24
  -3   6   2    9.99    1.23
   3   6  -2    8.58    1.37
   3   6  -2    9.76    1.39
  -2  -6   2   42.90    3.59
  -2  -6   2   46.26    3.51
   2  -6  -2   39.77    3.96
   2  -6  -2   49.95    5.46
  -2  -6   2   48.02    3.66
  -2  -6   2   46.81    4.99
  -2  -6   2   47.32    5.20
  -2  -6   2   42.29    3.61
  -2  -6   2   45.44    3.67
  -2   6   2   44.37    3.51
   2   6  -2   39.40    3.43
  -2   6   2   44.04    6.04
   2   6  -2   54.07    4.04
   2   6  -2   47.09    5.81
   2   6  -2   44.57    3.59
   2   6  -2   44.13    3.67
  -1  -6   2   47.64    5.04
  -1  -6   2   47.54    3.80
  -1  -6   2   48.58    3.82
  -1  -6   2   45.36    3.65
  -1  -6   2   47.78    5.10
  -1  -6   2   51.10    3.69
   1  -6  -2   48.93    5.27
   1   6  -2   48.94    3.68
   1   6  -2   47.19    3.61
   1   6  -2   44.73    5.11
   1   6  -2   42.19    5.57
  -1   6   2   48.11    3.56
  -1   6   2   45.74    3.54
  -1   6   2   43.68    3.57
   1   6  -2   45.52    3.52
   0  -6  -2   13.00    1.54
   0  -6   2   17.51    1.80
   0   6  -2   22.40    3.32
   0   6  -2   24.40    2.16
   0   6  -2   24.72    1.96
   0   6  -2   22.82    4.15
   0   6   2   21.64    1.96
   0   6  -2   23.50    2.03
   0   6   2   28.27    4.21
   0   6   2   23.38    2.03
  -1  -6  -2   48.31    3.58
  -1  -6  -2   45.76    3.57
   1  -6   2   42.88    4.67
  -1  -6  -2   43.07    3.61
   1  -6   2   46.63    3.58
  -1  -6  -2   36.67    6.76
  -1  -6  -2   44.92    4.98
  -1   6  -2   44.05    4.64
   1   6   2   38.53    5.19
  -1   6  -2   39.48    5.42
  -1   6  -2   42.06    3.31
   1   6   2   44.71    3.35
  -2  -6  -2   31.87    4.54
  -2  -6  -2   32.04    4.24
  -2  -6  -2   34.61    2.76
   2  -6   2   34.99    3.40
  -2  -6  -2   40.26    2.98
   2   6   2   33.59    2.86
  -2   6  -2   37.09    5.37
   2   6   2   30.50    3.19
  -2   6  -2   35.76    2.78
  -2   6  -2   35.23    2.72
   2   6   2   35.99    2.88
   2   6   2   34.89    2.70
   3  -6   2   11.29    1.75
   3  -6   2   12.78    2.17
  -3  -6  -2   12.56    1.65
  -3  -6  -2   10.73    1.76
  -3  -6  -2   11.01    1.60
  -3  -6  -2   11.70    1.49
  -3  -6  -2   11.95    1.28
  -3  -6  -2    9.58    2.63
   3  -6   2   14.21    1.80
   3  -6   2   12.68    1.95
  -3  -6  -2   12.84    1.26
   3   6   2   12.27    1.42
   3   6   2   12.93    1.84
  -3   6  -2    9.25    3.16
  -3   6  -2    8.64    2.35
   3   6   2   13.08    1.56
  -4  -6  -2   21.64    1.85
  -4  -6  -2   20.23    2.27
   4  -6   2   19.30    3.13
   4  -6   2   20.91    2.77
   4  -6   2   17.37    2.31
  -4  -6  -2   18.51    1.86
   4  -6   2   16.27    2.89
  -4  -6  -2   20.90    2.06
   4  -6   2   25.12    2.50
  -4  -6  -2   19.66    2.05
  -4  -6  -2   19.73    2.36
  -4   6  -2   11.19    5.20
   4   6   2   19.80    2.42
   4   6   2   16.81    2.91
   4   6   2   15.22    1.88
   4   6   2   20.26    1.79
  -5  -6  -2   30.47    3.10
  -5  -6  -2   26.05    6.99
   5  -6   2   33.25    3.50
   5  -6   2   37.49    3.73
  -5  -6  -2   34.56    3.29
   5  -6   2   35.26    3.21
   5  -6   2   32.00    3.54
   5  -6   2   34.94    3.33
  -5  -6  -2   33.77    2.85
  -5  -6  -2   34.40    2.87
  -5   6  -2   30.36    2.89
   5   6   2   30.51    3.08
   5   6   2   36.45    3.26
   5   6   2   37.07    3.02
   5   6   2   38.60    3.61
  -6  -6  -2    2.63    0.72
  -6  -6  -2    2.25    0.89
   6  -6   2    2.52    1.12
  -6  -6  -2    4.13    0.75
   6  -6   2    3.58    1.52
   6  -6   2    2.60    1.30
   6  -6   2    4.37    1.41
   6   6   2    2.96    1.26
   6   6   2    1.38    1.10
   6   6   2    2.62    0.75
   6   6   2    1.45    0.66
   7  -6   2   11.54    2.07
  -7  -6  -2   10.77    1.57
   7  -6   2   11.60    1.54
  -7  -6  -2   10.87    1.24
   7   6   2    8.25    1.53
   7   6   2    8.34    1.16
  -7  -7   2    5.03    0.79
   7   7  -2    5.15    0.82
   7   7  -2    3.93    1.34
   7   7  -2    4.70    0.78
   6  -7  -2    4.34    1.07
  -6  -7   2    7.28    1.00
  -6  -7   2    6.88    0.95
  -6  -7   2    9.43    1.29
   6  -7  -2    3.06    4.30
   6  -7  -2    4.67    0.94
   6   7  -2    6.56    0.94
   6   7  -2    7.36    1.66
   6   7  -2    5.93    0.90
   6   7  -2    5.84    1.12
  -5  -7   2    8.16    1.23
   5  -7  -2   11.43    1.44
   5  -7  -2    9.07    1.50
  -5  -7   2    7.26    1.13
  -5  -7   2    5.38    2.85
   5  -7  -2    6.90    1.10
  -5  -7   2    7.19    1.90
   5  -7  -2    8.35    1.70
   5  -7  -2    7.82    1.48
   5   7  -2    6.43    1.65
   5   7  -2    7.65    1.19
   5   7  -2    6.90    1.05
   5   7  -2    6.76    0.98
   5   7  -2    6.04    1.66
   4  -7  -2   20.65    3.57
   4  -7  -2   27.88    3.07
   4  -7  -2   27.58    2.31
  -4  -7   2   24.28    2.29
  -4  -7   2   28.40    4.62
  -4  -7   2   20.38    2.78
  -4  -7   2   28.39    2.24
   4  -7  -2   20.06    3.54
  -4  -7   2   25.10    2.32
  -4  -7   2   23.08    2.67
   4  -7  -2   22.36    2.85
   4   7  -2   21.99    2.64
  -4   7   2   22.98    2.02
  -4   7   2   25.76    2.18
   4   7  -2   24.44    2.61
   4   7  -2   22.06    2.90
   4   7  -2   29.12    2.59
   3  -7  -2    0.16    0.85
  -3  -7   2    0.06    0.93
   3  -7  -2    0.75    1.15
   3  -7  -2   -0.44    0.84
  -3  -7   2    0.48    0.61
   3  -7  -2    1.16    0.80
  -3  -7   2   -0.23    0.99
  -3  -7   2    1.25    1.70
  -3  -7   2    0.79    0.54
  -3  -7   2    0.24    0.45
  -3  -7   2   -2.07    1.53
   3  -7  -2   -0.12    1.01
   3  -7  -2    1.51    1.43
   3  -7  -2    0.18    1.82
   3   7  -2   -0.03    0.58
   3   7  -2    1.11    0.75
   3   7  -2    0.18    0.94
   3   7  -2   -0.27    0.59
  -3   7   2   -0.27    0.48
  -3   7   2    0.48    0.63
   3   7  -2   -0.21    2.10
  -2  -7   2    5.89    0.93
   2  -7  -2    3.55    1.06
  -2  -7   2    3.80    1.09
   2  -7  -2    4.51    1.14
   2  -7  -2    4.36    1.38
  -2  -7   2    1.20    1.76
   2  -7  -2    3.52    1.42
  -2  -7   2    4.71    0.70
  -2  -7   2    5.08    0.88
   2  -7  -2    3.53    0.88
  -2  -7   2    3.05    1.88
   2   7  -2    4.50    0.72
   2   7  -2    1.60    2.23
   2   7  -2    4.09    0.96
   2   7  -2    4.54    0.80
  -2   7   2    4.86    0.71
   2   7  -2    4.90    3.00
  -2   7   2    2.75    2.24
   2   7  -2    5.30    0.76
   2   7  -2    3.79    1.96
  -1  -7   2   17.30    3.74
  -1  -7   2   16.62    1.81
   1  -7  -2   14.66    1.73
   1  -7  -2   11.38    1.72
  -1  -7   2   15.64    1.51
   1  -7  -2   11.48    1.72
  -1  -7   2   15.59    1.58
   1  -7  -2   16.78    2.09
   1  -7  -2   15.13    3.38
  -1  -7   2   11.38    2.89
   1   7  -2   16.00    1.74
   1   7  -2   19.29    3.77
   1   7  -2   17.12    1.65
   1   7  -2   16.72    1.51
  -1   7   2   17.29    1.66
  -1   7   2   18.59    1.60
  -1   7   2   12.20    3.04
   1   7  -2   17.70    1.74
   1   7  -2   21.78    1.75
   0  -7  -2   26.90    2.22
   0  -7   2   24.36    4.08
   0  -7  -2   22.55    2.24
   0  -7   2   22.58    2.14
   0  -7  -2   24.40    3.73
   0  -7   2   23.58    3.73
   0   7  -2   22.08    2.10
   0   7  -2   23.18    1.89
   0   7   2   20.62    1.90
   0   7  -2   22.03    3.71
   0   7   2   23.66    4.60
   0   7  -2   22.65    1.95
   0   7  -2   20.98    1.91
   0   7   2   22.43    2.00
   0   7  -2   21.22    4.49
  -1  -7  -2   15.76    2.06
   1  -7   2   16.33    1.72
   1  -7   2   16.21    2.43
  -1  -7  -2   18.07    1.67
   1  -7   2   15.92    1.82
  -1  -7  -2   15.55    1.78
   1   7   2   16.94    1.60
   1   7   2   12.16    1.69
  -1   7  -2   15.94    1.53
  -1   7  -2   14.78    1.39
  -1   7  -2   15.35    3.00
   2  -7   2    4.45    1.27
   2  -7   2    3.52    0.81
   2  -7   2    5.94    1.39
  -2  -7  -2    3.87    0.84
  -2  -7  -2    5.36    0.77
  -2  -7  -2    3.09    3.68
   2  -7   2    4.66    1.39
  -2  -7  -2    4.00    1.09
  -2  -7  -2    1.82    1.62
  -2  -7  -2    4.74    1.11
   2  -7   2    3.24    1.39
  -2   7  -2    2.97    1.90
   2   7   2    4.49    0.86
   2   7   2    5.48    0.74
  -2   7  -2    5.39    0.78
   2   7   2    5.45    0.95
   2   7   2    2.62    0.92
  -2   7  -2    1.45    2.31
  -2   7  -2    3.39    0.93
   2   7   2    4.80    0.93
  -3  -7  -2    1.03    1.82
  -3  -7  -2    0.59    2.54
  -3  -7  -2    1.62    1.11
   3  -7   2    1.50    1.31
   3  -7   2   -0.39    1.12
  -3  -7  -2    0.77    0.77
   3  -7   2    0.88    1.15
   3  -7   2    3.14    1.12
   3  -7   2   -0.83    0.93
  -3  -7  -2   -0.10    0.58
   3  -7   2   -0.59    1.35
  -3  -7  -2    0.93    0.90
  -3   7  -2   -0.05    0.59
   3   7   2    0.51    0.76
  -3   7  -2    0.90    1.81
   3   7   2    0.95    0.62
   3   7   2    0.20    0.64
   3   7   2    0.19    0.98
   4  -7   2   24.87    4.01
   4  -7   2   24.55    2.89
   4  -7   2   24.90    3.45
  -4  -7  -2   23.61    3.36
  -4  -7  -2   24.26    2.17
  -4  -7  -2   21.09    2.62
  -4  -7  -2   20.98    2.23
  -4  -7  -2   26.82    3.01
   4   7   2   23.07    2.26
  -4   7  -2   25.12    2.23
   4   7   2   24.88    2.84
   4   7   2   23.91    2.55
   5  -7   2    9.00    1.70
  -5  -7  -2    8.14    1.14
  -5  -7  -2    9.50    1.54
  -5  -7  -2    8.29    3.19
   5  -7   2    9.71    1.55
   5  -7   2    9.04    1.79
  -5  -7  -2   10.75    1.57
   5  -7   2   12.81    2.67
  -5  -7  -2    5.71    1.80
   5   7   2   12.68    2.44
   5   7   2    8.14    1.22
   5   7   2    9.98    1.41
  -5   7  -2    9.09    1.34
   5   7   2    6.77    1.16
   5   7   2   13.21    2.46
  -6  -7  -2    7.82    1.24
  -6  -7  -2    5.38    1.26
   6  -7   2    8.29    1.32
   6  -7   2    7.28    1.54
  -6  -7  -2    8.51    1.08
   6  -7   2   10.22    1.62
   6   7   2    4.32    0.75
   7  -7   2    4.46    1.29
  -7  -7  -2    4.01    0.66
   7  -7   2    0.99    1.55
  -7  -7  -2    3.22    0.72
   7   7   2    4.00    0.89
   7   7   2    3.12    0.68
   6  -8  -2   13.40    2.38
   6  -8  -2   11.58    2.44
  -6  -8   2   15.81    2.21
   6  -8  -2   11.97    2.37
  -6  -8   2   17.88    1.84
  -6  -8   2   15.57    1.76
   6   8  -2   17.20    2.71
   6   8  -2   14.23    1.50
   6   8  -2   14.00    1.41
  -5  -8   2    1.52    0.76
   5  -8  -2    2.11    1.49
   5  -8  -2    0.76    0.85
  -5  -8   2    1.91    0.72
   5  -8  -2    1.32    0.88
  -5  -8   2    2.26    0.78
   5   8  -2    0.62    0.96
   5   8  -2    1.10    0.76
   5   8  -2    2.71    0.97
   5   8  -2    1.32    1.57
   5   8  -2    0.48    0.80
  -4  -8   2    4.80    1.43
  -4  -8   2    1.31    3.08
  -4  -8   2    0.56    1.98
   4  -8  -2   -0.85    2.59
   4  -8  -2    3.18    1.58
   4  -8  -2    3.06    1.31
   4  -8  -2    2.71    0.92
   4  -8  -2    4.88    0.96
  -4  -8   2    3.26    0.85
   4  -8  -2    0.36    3.38
   4  -8  -2    4.63    1.34
  -4  -8   2    3.26    0.86
   4   8  -2    2.07    0.87
   4   8  -2    2.52    0.82
  -4   8   2    3.97    0.87
   4   8  -2    2.51    1.01
   4   8  -2    3.09    1.87
  -3  -8   2   28.53    2.37
  -3  -8   2   25.31    6.50
   3  -8  -2   27.79    2.48
  -3  -8   2   23.85    3.56
  -3  -8   2   26.02    3.15
   3  -8  -2   25.63    3.07
   3  -8  -2   26.40    3.37
  -3  -8   2   27.39    2.29
   3  -8  -2   26.63    2.92
  -3  -8   2   27.50    2.44
   3  -8  -2   31.35    3.72
   3  -8  -2   21.80    2.67
   3   8  -2   31.93    2.85
   3   8  -2   27.42    2.61
  -3   8   2   28.26    2.57
  -3   8   2   31.35    2.66
   2  -8  -2    6.17    1.58
   2  -8  -2    7.88    1.44
  -2  -8   2    8.70    1.62
   2  -8  -2    7.18    1.52
   2  -8  -2    8.74    1.20
  -2  -8   2    8.43    1.72
  -2  -8   2    7.27    1.11
   2  -8  -2    7.91    1.35
  -2  -8   2    9.34    1.06
   2   8  -2    8.57    1.94
  -2   8   2    6.93    1.10
   2   8  -2    8.31    1.20
   2   8  -2    6.29    0.94
   2   8  -2    7.94    1.48
   2   8  -2    9.43    0.98
   2   8  -2    7.60    1.37
   1  -8  -2   19.40    2.19
  -1  -8   2   23.47    2.13
   1  -8  -2   22.16    2.89
  -1  -8   2   22.55    2.48
   1  -8  -2   22.74    2.12
   1  -8  -2   21.69    2.58
   1  -8  -2   25.11    5.10
   1  -8  -2   23.00    2.11
   1   8  -2   24.43    2.04
   1   8  -2   18.69    3.57
   1   8  -2   19.74    1.95
   1   8  -2   27.42    2.16
   1   8  -2   20.50    2.02
  -1   8   2   23.77    1.97
  -1   8   2   22.16    2.09
   1   8  -2   22.34    2.23
   0  -8  -2   66.20    7.30
   0  -8   2   69.54    5.51
   0  -8  -2   69.03    5.45
   0  -8  -2   71.68    6.71
   0  -8  -2   69.85    5.91
   0  -8   2   63.51    7.30
   0  -8   2   72.70    6.10
   0  -8  -2   71.33    5.67
   0   8  -2   69.23    5.29
   0   8  -2   66.94    5.27
   0   8  -2   60.25    8.25
   0   8   2   72.97    8.51
   0   8  -2   65.45    5.36
   0   8  -2   75.88    7.36
   0   8   2   69.58    5.66
   1  -8   2   22.97    2.81
  -1  -8  -2   21.44    2.78
  -1  -8  -2   19.73    2.28
   1  -8   2   22.19    2.17
   1  -8   2   21.67    2.39
   1  -8   2   23.33    2.89
  -1  -8  -2   22.82    2.13
  -1  -8  -2   23.79    2.34
   1  -8   2   21.73    2.17
  -1   8  -2   16.57    3.54
  -1   8  -2   22.31    1.91
  -1   8  -2   20.08    1.95
   1   8   2   20.55    2.13
   1   8   2   22.50    1.89
  -1   8  -2   20.34    2.20
   1   8   2   23.11    2.09
  -1   8  -2   23.29    2.05
  -2  -8  -2    7.03    1.00
  -2  -8  -2    2.91    3.43
   2  -8   2    5.04    1.43
   2  -8   2    7.37    1.65
   2  -8   2    9.39    1.56
   2  -8   2    6.99    1.59
  -2  -8  -2    5.21    1.46
  -2  -8  -2    7.42    1.45
  -2  -8  -2    7.50    1.23
   2  -8   2    7.60    1.25
   2   8   2    6.66    0.88
   2   8   2    6.15    1.08
  -2   8  -2    5.95    1.00
   2   8   2    6.29    0.88
   2   8   2    5.15    1.23
  -2   8  -2    3.65    3.39
   2   8   2    2.62    1.52
  -2   8  -2    6.00    0.82
  -3  -8  -2   24.76    2.42
   3  -8   2   27.07    2.77
  -3  -8  -2   21.97    2.86
   3  -8   2   28.48    2.89
  -3  -8  -2   20.92    3.09
   3  -8   2   26.11    3.22
   3  -8   2   27.38    3.45
  -3  -8  -2   24.25    2.21
  -3  -8  -2   22.52    3.42
   3  -8   2   29.21    2.88
  -3   8  -2   25.46    2.19
   3   8   2   23.74    2.23
  -3   8  -2   28.63    2.36
   3   8   2   24.49    2.71
   3   8   2   25.18    2.52
  -4  -8  -2    3.02    0.94
   4  -8   2    3.70    1.34
   4  -8   2    3.80    1.65
  -4  -8  -2    4.92    5.12
  -4  -8  -2    5.01    0.90
   4  -8   2    6.59    2.03
  -4  -8  -2    3.24    2.10
   4  -8   2    3.82    2.42
  -4  -8  -2    5.09    0.90
   4  -8   2    3.79    1.30
   4   8   2    2.84    1.02
   4   8   2    3.64    0.99
   5  -8   2    4.77    2.14
  -5  -8  -2    1.80    0.72
   5  -8   2    2.40    1.79
  -5  -8  -2    0.87    0.73
  -5  -8  -2    1.94    0.84
   5  -8   2    2.24    1.29
   5   8   2    2.65    0.84
   5   8   2    2.39    1.19
   5   8   2    2.58    0.73
  -6  -8  -2   19.46    2.04
  -6  -8  -2   18.15    2.17
  -6  -8  -2   20.58    1.83
   6  -8   2   18.62    2.91
   6  -8   2   20.31    2.42
   6   8   2   18.43    1.79
   6  -9  -2    1.67    1.22
   6  -9  -2    2.86    1.18
  -6  -9   2    2.38    0.66
   6   9  -2    1.70    0.65
   6   9  -2    2.69    0.71
   5  -9  -2    0.88    1.25
  -5  -9   2    1.04    0.71
  -5  -9   2    2.10    0.99
   5  -9  -2    1.16    1.09
  -5  -9   2    2.71    0.77
   5  -9  -2    1.41    1.26
   5   9  -2    1.35    1.16
   5   9  -2    1.35    0.53
  -4  -9   2    8.23    1.36
  -4  -9   2    9.56    1.35
   4  -9  -2    6.67    1.21
   4  -9  -2    6.63    1.46
  -4   9   2    6.85    1.41
   4   9  -2    7.02    1.55
   4   9  -2    5.62    1.84
   4   9  -2    4.73    0.93
  -3  -9   2    4.92    1.86
  -3  -9   2   10.15    1.97
   3  -9  -2    8.31    1.53
   3  -9  -2    7.38    1.50
  -3  -9   2    5.47    1.12
   3  -9  -2    5.06    2.02
   3  -9  -2    6.24    2.62
   3  -9  -2    8.08    1.68
   3   9  -2    7.92    1.13
   3   9  -2    6.58    1.29
   3   9  -2    4.87    1.19
   3   9  -2    6.92    1.42
  -3   9   2    6.46    1.03
  -3   9   2    6.43    1.17
   2  -9  -2    5.59    1.44
   2  -9  -2    4.67    0.91
   2  -9  -2    5.24    1.58
  -2  -9   2    4.41    2.96
  -2  -9   2    4.02    1.02
   2  -9  -2    5.89    1.86
   2  -9  -2    3.70    1.02
   2  -9  -2    4.42    1.43
  -2  -9   2    5.83    2.51
   2   9  -2    4.50    0.78
  -2   9   2    4.37    0.98
  -2   9   2    5.40    0.89
   2   9  -2    2.05    1.79
   2   9  -2    6.48    0.91
   2   9  -2    3.10    0.84
   2   9  -2   -0.04    2.52
   1  -9  -2   22.07    3.14
   1  -9  -2   28.39    2.67
   1  -9  -2   33.94    3.33
   1  -9  -2   25.58    5.11
  -1  -9   2   28.41    4.21
   1  -9  -2   31.53    2.62
  -1  -9   2   28.37    5.79
  -1  -9   2   31.44    2.69
   1  -9  -2   33.78    2.70
  -1  -9   2   29.01    2.92
   1   9  -2   34.50    2.62
   1   9  -2   26.55    4.13
   1   9  -2   32.92    2.67
   1   9  -2   30.35    2.53
   1   9  -2   28.56    2.97
  -1   9   2   31.54    2.78
  -1   9   2   34.68    2.95
   1   9  -2   23.07    6.74
   0  -9   2   28.80    3.56
   0  -9  -2   28.31    3.68
   0  -9  -2   28.37    2.65
   0  -9  -2   27.55    2.71
   0  -9  -2   29.75    3.12
   0  -9   2   29.21    2.77
   0  -9   2   29.14    2.59
   0   9  -2   27.36    4.54
   0   9  -2   25.88    2.40
   0   9  -2   28.39    2.33
   0   9   2   29.89    2.59
   0   9   2   29.23    2.65
   0   9  -2   27.17    2.46
   0   9  -2   27.77    2.64
   1  -9   2   29.12    2.82
   1  -9   2   31.34    3.58
  -1  -9  -2   33.63    3.01
  -1  -9  -2   31.70    3.29
  -1  -9  -2   23.77    3.12
   1  -9   2   36.77    2.91
  -1  -9  -2   31.44    2.80
   1  -9   2   33.45    3.37
   1   9   2   29.48    2.74
  -1   9  -2   33.03    2.65
   1   9   2   27.92    2.46
   1   9   2   27.14    2.60
   1   9   2   26.37    2.36
  -1   9  -2   27.02    5.64
  -1   9  -2   23.28    2.60
  -1   9  -2   27.92    2.36
  -2  -9  -2    5.23    1.76
   2  -9   2    6.65    1.85
  -2  -9  -2    7.05    1.58
   2  -9   2    5.39    1.00
  -2  -9  -2    5.38    1.11
   2  -9   2    5.11    1.60
  -2  -9  -2    3.01    2.54
   2  -9   2    4.13    1.56
  -2   9  -2    6.06    1.13
   2   9   2    6.11    0.80
   2   9   2    3.14    1.76
   2   9   2    3.42    1.86
  -2   9  -2    1.42    2.32
  -2   9  -2    5.82    1.31
   2   9   2    4.61    1.10
  -2   9  -2    5.84    0.92
   2   9   2    5.45    0.86
  -2   9  -2   -2.88    5.75
   3  -9   2    8.41    1.73
  -3  -9  -2    6.38    1.73
  -3  -9  -2    6.65    1.61
   3  -9   2    8.49    1.35
   3  -9   2   12.39    2.25
   3  -9   2    8.24    1.92
  -3  -9  -2    5.33    3.37
   3  -9   2    7.69    1.57
  -3  -9  -2   -0.55    5.07
  -3   9  -2    8.33    1.08
  -3   9  -2    9.17    3.05
   3   9   2    9.23    1.65
   3   9   2    8.27    1.46
   3   9   2    8.96    1.30
  -3   9  -2    8.21    1.40
  -4  -9  -2    9.45    1.32
  -4  -9  -2    6.02    1.25
   4  -9   2    7.90    2.15
  -4  -9  -2    3.07    2.61
   4  -9   2   13.15    2.99
   4  -9   2   10.23    2.83
   4  -9   2   10.88    2.31
  -4  -9  -2    8.74    1.42
   4   9   2    6.78    1.11
   4   9   2    7.35    1.79
  -5  -9  -2   -1.49    1.33
   5  -9   2   -0.20    1.17
  -5  -9  -2    2.96    0.75
   5  -9   2    1.47    1.19
   5  -9   2    1.39    0.87
  -5  -9  -2    1.38    1.30
   5   9   2    0.52    0.74
   5   9   2    1.02    0.85
   6  -9   2    2.94    1.16
   6  -9   2    6.32    1.28
  -6  -9  -2    3.28    1.39
  -6  -9  -2    4.03    0.93
   6  -9   2    3.14    1.11
   6   9   2    2.23    0.62
   6 -10  -2    1.60    1.07
   6  10  -2    1.93    0.71
   6  10  -2    1.06    0.53
  -5 -10   2    2.47    0.76
   5 -10  -2    2.23    1.14
   5 -10  -2    1.66    1.07
   5  10  -2    2.33    0.91
   5  10  -2    0.51    0.77
   4 -10  -2    0.28    1.17
   4 -10  -2    2.03    1.24
   4 -10  -2    1.22    1.29
  -4 -10   2    7.24    2.49
   4  10  -2    2.30    0.89
   4  10  -2    1.13    0.75
   3 -10  -2    9.87    1.75
   3 -10  -2    8.80    1.64
   3 -10  -2    8.75    1.75
  -3 -10   2   11.01    1.53
   3 -10  -2   10.77    3.23
  -3 -10   2   16.18    3.05
   3 -10  -2   11.69    2.04
   3  10  -2   10.32    1.44
   3  10  -2    9.04    1.76
   3  10  -2   11.75    1.70
  -3  10   2   12.81    1.95
   2 -10  -2    6.25    1.41
   2 -10  -2    5.60    1.45
   2 -10  -2    7.92    1.59
  -2 -10   2    5.84    1.30
  -2 -10   2    7.59    1.53
   2 -10  -2    8.03    1.05
   2  10  -2    6.55    0.86
   2  10  -2    7.87    2.34
  -2  10   2    5.15    1.22
   2  10  -2    5.07    1.35
  -2  10   2    4.38    1.29
   1 -10  -2   14.04    1.90
  -1 -10   2   11.54    1.58
   1 -10  -2   11.62    1.47
  -1 -10   2   12.33    1.70
   1 -10  -2    6.18    3.98
  -1 -10   2   10.57    3.95
   1 -10  -2    9.96    1.75
   1 -10  -2   11.52    1.95
   1  10  -2   11.62    1.51
  -1  10   2   12.99    1.95
  -1  10   2   15.49    1.69
   1  10  -2   13.19    2.15
   0 -10   2    0.94    1.68
   0 -10  -2   -0.69    2.17
   0 -10  -2    3.18    0.97
   0 -10   2    1.41    1.00
   0 -10   2    2.61    3.60
   0 -10   2    3.18    2.32
   0 -10  -2    1.71    1.36
   0 -10  -2    4.45    2.43
   0 -10  -2    2.56    1.00
   0  10  -2    1.27    0.74
   0  10  -2    1.82    1.38
   0  10  -2    2.03    0.69
   0  10  -2    2.01    2.15
   0  10   2    2.83    1.06
   0  10  -2    2.46    1.03
   0  10   2    2.12    1.11
   0  10   2    2.74    1.28
  -1 -10  -2   13.39    1.99
   1 -10   2   12.25    1.78
   1 -10   2   13.88    1.93
  -1 -10  -2   14.83    2.01
   1 -10   2    8.50    2.00
   1 -10   2    9.76    1.69
  -1  10  -2   10.41    1.55
  -1  10  -2    8.96    1.25
  -1  10  -2    5.92    3.18
   1  10   2    7.62    1.10
   1  10   2   10.53    2.44
   1  10   2    9.30    1.36
  -1  10  -2   11.42    2.04
  -1  10  -2    8.95    1.31
   1  10   2   10.87    1.27
   2 -10   2    7.74    1.58
   2 -10   2    7.38    1.66
   2 -10   2    8.58    1.16
  -2 -10  -2    6.45    1.59
  -2 -10  -2    7.47    1.51
   2 -10   2    7.93    2.83
   2  10   2    7.01    1.03
  -2  10  -2    8.14    1.62
   2  10   2    6.96    1.24
  -2  10  -2    7.45    1.43
  -2  10  -2    2.43    5.92
   2  10   2    8.73    2.12
   3 -10   2    9.27    1.68
  -3 -10  -2   12.46    2.31
   3 -10   2   11.62    2.02
   3 -10   2   16.17    2.95
  -3 -10  -2   10.22    1.70
  -3  10  -2   11.31    1.50
  -3  10  -2   13.68    2.04
   3  10   2   14.92    1.72
   3  10   2   11.27    1.66
   3  10   2   14.01    2.16
   4 -10   2    2.20    1.92
   4 -10   2    1.30    1.09
   4 -10   2    3.94    2.09
  -4 -10  -2    0.91    0.87
   4 -10   2    2.81    1.11
  -4 -10  -2   -1.20    1.97
   4  10   2    0.19    1.04
  -4  10  -2    2.37    0.76
  -5 -10  -2    1.61    0.85
   5 -10   2    0.81    0.98
   5 -10   2    0.19    0.82
  -5  10  -2    3.68    0.76
   5  10   2    1.74    0.87
   5  10   2    3.26    0.95
   6 -10   2   -0.53    0.98
  -6 -10  -2    2.24    0.72
   6  10   2    2.13    0.65
   6  10   2    1.17    0.61
   6  10   2    2.29    0.63
   5 -11  -2    2.42    0.99
   5 -11  -2    2.99    1.03
   5 -11  -2    2.01    0.95
   5  11  -2    1.82    0.66
  -4 -11   2    5.76    1.96
   4 -11  -2    4.71    1.33
   4 -11  -2    3.20    1.11
  -4 -11   2    5.43    1.00
   4 -11  -2    2.66    1.09
   4  11  -2    4.60    1.25
  -4  11   2    7.59    1.16
   4  11  -2    6.26    1.05
   3 -11  -2    2.70    1.21
  -3 -11   2    2.29    0.89
   3 -11  -2    0.41    1.12
  -3  11   2    5.45    1.41
   3  11  -2    1.72    0.67
  -3  11   2    4.84    1.51
   3  11  -2    1.74    0.84
   3  11  -2    2.94    1.42
  -2 -11   2    9.99    1.58
   2 -11  -2    9.99    2.58
   2 -11  -2    5.37    2.45
   2 -11  -2   10.46    2.51
  -2 -11   2    6.86    1.26
   2 -11  -2    9.26    1.39
   2 -11  -2   11.20    2.91
   2  11  -2    9.04    2.52
   2  11  -2    5.76    1.15
  -2  11   2    5.95    1.32
  -2  11   2    9.95    1.46
   2  11  -2   10.56    1.39
   2  11  -2    7.61    1.10
  -2  11   2    9.01    1.31
  -2  11   2    9.21    1.73
  -1 -11   2    3.40    1.17
   1 -11  -2    3.97    1.00
   1 -11  -2    2.24    1.31
   1 -11  -2    2.03    1.97
  -1 -11   2    3.51    0.96
   1 -11  -2    3.34    1.36
   1 -11  -2    5.04    1.05
   1 -11  -2    2.31    1.63
  -1 -11   2    0.45    1.65
   1  11  -2    4.18    0.79
  -1  11   2    2.89    1.54
  -1  11   2    2.89    0.84
   1  11  -2    2.33    2.79
   1  11  -2    3.35    0.77
   1  11  -2    4.53    0.95
  -1  11   2    2.86    1.02
   1  11  -2    0.49    2.39
  -1  11   2    2.73    1.00
   0 -11  -2    8.73    1.38
   0 -11   2    9.66    1.89
   0 -11  -2    5.78    2.32
   0 -11  -2    6.21    1.21
   0 -11   2    6.99    1.31
   0 -11  -2    8.81    1.61
   0 -11   2    9.20    1.34
   0  11   2    6.17    0.95
   0  11  -2   11.35    1.91
   0  11   2    7.13    1.03
   0  11  -2    2.51    2.37
   0  11  -2    7.65    1.01
   0  11   2    7.08    1.84
   0  11  -2    7.04    0.99
   0  11   2    6.75    1.20
  -1 -11  -2    3.50    1.10
  -1 -11  -2    2.09    1.03
   1 -11   2    4.19    1.04
   1 -11   2    1.93    1.91
   1 -11   2    5.76    1.58
  -1  11  -2    2.18    1.03
   1  11   2    2.97    0.80
   1  11   2    1.54    0.92
  -1  11  -2    5.02    1.74
   1  11   2    1.11    2.35
  -1  11  -2    2.87    0.73
  -1  11  -2   -0.45    3.37
   1  11   2    2.63    0.75
  -1  11  -2    3.12    0.93
   2 -11   2   10.24    1.24
  -2 -11  -2    7.07    1.39
   2 -11   2   11.77    2.42
  -2 -11  -2    8.71    1.61
   2 -11   2    6.61    1.57
   2 -11   2    7.05    1.22
   2  11   2   10.98    1.57
  -2  11  -2    4.98    3.56
  -2  11  -2    7.29    1.22
  -2  11  -2   13.20    1.99
   2  11   2    9.58    1.25
   2  11   2    9.98    1.71
   3 -11   2    1.96    1.17
   3 -11   2    0.71    1.16
   3 -11   2    5.28    2.49
   3 -11   2    1.64    1.42
  -3 -11  -2    3.18    1.43
  -3 -11  -2    1.35    0.93
  -3  11  -2    2.20    1.11
   3  11   2    0.50    1.53
   3  11   2    2.13    0.85
   3  11   2    2.02    0.70
   4 -11   2    2.81    1.03
   4 -11   2    2.22    1.15
  -4 -11  -2    1.84    0.99
   4 -11   2    0.60    0.99
  -4 -11  -2    6.73    1.92
   4  11   2    4.71    1.53
   4  11   2    3.84    1.33
  -4  11  -2    5.41    0.82
   5 -11   2    1.85    0.87
  -5 -11  -2    3.67    0.95
   5 -11   2    1.99    0.83
   5  11   2    2.15    0.99
   5  11   2    3.02    0.86
   4 -12  -2    1.08    0.92
   4 -12  -2    0.00    0.79
  -4 -12   2    1.43    0.68
   4 -12  -2    0.12    1.03
  -4 -12   2    2.51    2.65
  -4  12   2    1.42    0.60
   4  12  -2    2.30    1.36
   4  12  -2   -0.57    0.83
  -3 -12   2    3.07    0.96
   3 -12  -2    2.76    1.28
   3 -12  -2    2.16    1.14
   3 -12  -2    2.16    1.04
  -3 -12   2    4.90    2.40
   3  12  -2    4.05    1.26
  -3  12   2    5.89    1.26
   3  12  -2    4.71    1.06
  -3  12   2    5.63    0.86
  -2 -12   2    5.49    1.73
  -2 -12   2    8.60    1.33
   2 -12  -2    7.32    1.46
   2 -12  -2    3.48    1.87
   2 -12  -2    5.65    1.28
   2 -12  -2    5.44    1.43
  -2  12   2    5.37    1.29
  -2  12   2    5.93    1.16
   2  12  -2    9.13    1.46
  -2  12   2    7.42    1.25
   1 -12  -2    5.15    1.27
   1 -12  -2    2.93    1.30
   1 -12  -2    3.41    1.58
  -1 -12   2    4.52    1.06
  -1 -12   2    4.81    1.20
   1 -12  -2    4.71    1.34
  -1  12   2    2.34    0.78
  -1  12   2    3.14    0.85
   1  12  -2    3.51    0.70
  -1  12   2    2.94    1.25
   0 -12   2    6.47    1.71
   0 -12   2    5.21    2.85
   0 -12  -2    3.56    1.48
   0 -12   2    3.28    1.08
   0 -12   2    5.54    2.08
   0 -12  -2    4.90    2.36
   0  12   2    3.80    1.07
   0  12   2    4.02    1.17
   0  12  -2    4.38    0.83
   0  12   2    3.92    0.82
  -1 -12  -2    3.11    1.68
   1 -12   2    6.64    2.30
  -1 -12  -2    3.54    1.13
   1 -12   2    5.02    1.38
  -1  12  -2    4.94    0.85
   1  12   2    3.72    0.87
   1  12   2    4.18    0.99
  -1  12  -2    4.73    0.85
   2 -12   2    8.93    1.52
  -2 -12  -2    6.59    1.38
   2 -12   2    8.14    1.57
   2 -12   2    7.67    1.34
  -2 -12  -2    9.55    1.42
  -2  12  -2    8.97    1.55
   2  12   2    9.04    1.28
  -2  12  -2    8.95    1.17
   3 -12   2    3.27    1.87
   3 -12   2    3.34    1.13
  -3 -12  -2    4.55    1.11
   3 -12   2    2.39    1.36
  -3  12  -2    3.40    1.01
   3  12   2    3.56    0.99
   3  12   2    6.12    1.91
   3  12   2    4.37    0.81
  -3  12  -2    3.54    0.76
  -4 -12  -2    2.49    2.73
  -4 -12  -2    3.73    1.57
   4  12   2    0.39    1.65
   4  12   2   -0.69    1.03
  -3 -13   2    2.23    0.77
   3 -13  -2    0.54    0.84
  -3 -13   2    1.79    1.15
   3 -13  -2    1.03    0.99
   3  13  -2    1.70    0.95
  -3  13   2    2.05    0.61
  -3  13   2    1.49    0.98
  -2 -13   2    4.45    2.09
   2 -13  -2    2.42    1.23
  -2 -13   2    4.04    0.98
   2  13  -2    4.16    0.86
  -2  13   2    2.89    0.91
  -2  13   2    4.72    0.81
  -2  13   2    3.19    0.85
   1 -13  -2    7.99    1.49
  -1 -13   2   10.51    1.43
   1 -13  -2   13.53    1.43
  -1 -13   2    9.95    1.64
   1  13  -2   10.40    1.70
  -1  13   2   10.93    1.30
  -1  13   2    9.17    1.42
   1  13  -2   13.75    1.51
   1  13  -2    9.48    1.27
  -1  13   2   11.80    1.68
   0 -13  -2    8.84    1.24
   0 -13  -2    7.99    1.42
   0 -13   2    8.49    1.26
   0 -13  -2   10.09    1.61
   0  13   2    8.61    1.28
   0  13  -2    8.65    1.16
   0  13  -2    8.87    1.17
  -1 -13  -2    9.94    1.64
  -1 -13  -2   13.56    1.85
   1 -13   2   12.84    1.60
  -1 -13  -2    9.55    1.42
   1  13   2   11.09    1.33
   1  13   2   11.24    1.21
  -1  13  -2   10.47    1.32
   1  13   2   12.26    1.78
  -1  13  -2    8.98    1.32
  -2 -13  -2    4.94    1.14
   2 -13   2    3.85    1.77
  -2 -13  -2    4.11    1.48
   2 -13   2    5.32    2.18
   2  13   2    4.75    0.99
  -2  13  -2    2.91    0.79
  -2  13  -2    3.63    0.72
   3 -13   2    0.81    1.03
  -3 -13  -2    1.28    1.12
  -3 -13  -2    0.83    1.85
   3 -13   2    1.46    1.60
  -3 -13  -2    1.11    1.16
   3  13   2   -0.95    1.75
  -3  13  -2    0.14    0.91
  -2 -14   2    3.83    1.00
   2 -14  -2    1.88    0.82
  -2  14   2    2.74    0.59
  -2  14   2    2.25    0.66
  -1 -14   2    3.40    0.94
   1 -14  -2    3.86    2.77
   1 -14  -2    2.89    0.92
   1  14  -2    3.94    0.64
  -1  14   2    2.71    0.98
  -1  14   2    2.32    0.68
  -1  14   2    2.52    0.58
   0 -14   2    0.03    0.81
   0 -14  -2    0.01    0.80
   0 -14  -2    0.67    1.01
   0 -14   2    0.08    0.72
   0  14   2    0.60    0.50
   0  14   2   -0.12    0.56
   0  14  -2   -0.34    0.53
   0  14  -2    0.82    0.53
   0  14   2    1.71    0.87
  -1 -14  -2    4.88    1.32
  -1 -14  -2    6.29    0.99
   1 -14   2    7.80    1.97
   1  14   2    4.41    0.65
  -1  14  -2    3.12    0.94
  -1  14  -2    3.03    0.69
   2 -14   2    3.07    1.43
  -2 -14  -2    2.22    0.91
   2 -14   2    1.11    0.93
  -2 -14  -2    5.16    1.39
  -2  14  -2    2.49    1.31
   2  14   2    4.16    1.15
  -2  14  -2    2.85    0.62
   2  14   2    4.87    0.81
   8   0  -3    3.18    1.04
   8   0  -3    5.60    0.69
   8   0  -3    4.64    0.69
   8   0  -3    5.17    1.09
   7   0  -3   -2.42    1.85
   7   0  -3    1.24    0.91
   7   0  -3    0.22    0.53
   7   0  -3    1.26    1.12
   7   0  -3    0.40    1.07
   7   0  -3    2.67    1.13
   6   0  -3    1.71    1.19
  -6   0   3   -1.09    2.24
   6   0  -3    3.36    0.77
  -6   0   3    2.22    1.09
   6   0  -3    2.48    0.96
   6   0  -3    2.84    1.17
   6   0  -3    3.31    0.89
   6   0  -3    3.00    1.14
   5   0  -3    1.84    1.25
   5   0  -3    3.06    1.34
   5   0  -3    1.67    0.63
  -5   0   3   -1.29    1.79
  -5   0   3    2.70    0.79
   5   0  -3    2.40    2.51
   5   0  -3    1.31    1.00
   5   0  -3    2.46    0.82
   4   0  -3    0.82    0.65
   4   0  -3    0.19    0.51
  -4   0   3    0.18    0.88
  -4   0   3    0.45    0.92
   4   0  -3    0.31    0.85
   4   0  -3    2.95    1.92
   4   0  -3   -0.01    0.46
   3   0  -3    6.45    2.02
  -3   0   3   10.02    2.10
  -3   0   3    9.91    0.88
  -3   0   3    7.56    0.94
   2   0  -3   84.57    7.20
  -2   0   3   77.25    6.01
   1   0  -3   33.49    3.28
  -1   0   3   42.91    3.07
   1   0  -3   42.35    3.97
   1   0  -3   40.94    3.07
   0   0   3    7.89    0.97
   0   0  -3    7.51    1.01
   0   0   3    6.86    0.92
   0   0  -3    7.43    1.55
   1   0   3   29.53    2.81
  -1   0  -3   36.56    2.68
   1   0   3   34.15    2.62
  -1   0  -3   34.88    3.47
  -1   0  -3   34.49    2.61
  -2   0  -3   83.35    7.13
   2   0   3  102.06    7.49
  -2   0  -3  103.32    8.02
   3   0   3   14.74    1.51
  -3   0  -3   10.94    2.21
   3   0   3   12.43    1.46
  -3   0  -3   10.40    1.21
  -3   0  -3   12.19    1.37
  -4   0  -3    1.38    1.35
  -4   0  -3    0.91    0.76
   4   0   3    2.24    0.70
  -4   0  -3    1.09    0.39
   4   0   3    1.66    1.69
   4   0   3    0.56    0.68
   4   0   3    0.92    1.74
  -4   0  -3    0.30    0.76
  -4   0  -3    1.03    0.41
   4   0   3    2.50    1.91
   5   0   3    0.72    0.94
  -5   0  -3    0.94    2.62
   5   0   3    3.28    2.08
  -5   0  -3    1.25    0.75
   5   0   3    1.71    0.53
  -5   0  -3    1.57    0.53
   5   0   3    1.96    1.26
  -5   0  -3    1.73    1.18
  -5   0  -3    1.80    0.64
   5   0   3    1.85    1.48
   6   0   3    4.06    1.52
   6   0   3    2.95    1.28
   6   0   3    2.86    1.40
  -6   0  -3    4.50    0.76
  -6   0  -3    3.65    1.05
   6   0   3    4.07    1.44
  -6   0  -3    1.23    2.49
   7   0   3    1.22    0.91
  -7   0  -3    2.54    0.67
   7   0   3    2.05    1.26
   7   0   3    1.02    1.20
   7   0   3    2.44    1.17
   8   0   3    6.50    1.16
   8   0   3    5.67    1.12
   8   0   3    7.34    1.15
   8  -1  -3    1.55    0.68
   8  -1  -3    2.09    0.52
   8  -1  -3    1.30    0.89
   8  -1  -3    0.47    0.71
   8   1  -3    1.42    0.57
   8   1  -3    0.80    0.55
   8   1  -3    1.57    0.85
   8   1  -3    2.34    0.91
   7  -1  -3   11.45    1.91
   7  -1  -3   10.14    1.47
   7  -1  -3   12.73    1.88
  -7  -1   3   15.61    1.52
   7  -1  -3   12.08    1.45
   7  -1  -3   12.09    2.08
   7   1  -3   12.49    2.05
   7   1  -3   11.86    1.61
   7   1  -3   14.15    1.44
  -7   1   3   14.34    1.81
   7   1  -3   14.10    1.96
   7   1  -3   12.26    1.88
  -7   1   3   14.00    1.59
   7   1  -3   11.88    2.10
   6  -1  -3    7.52    1.51
   6  -1  -3    8.52    1.16
   6  -1  -3   10.53    1.49
  -6  -1   3   10.21    1.49
   6  -1  -3    6.51    1.24
   6  -1  -3    8.43    1.27
  -6  -1   3   11.08    1.34
   6  -1  -3    9.13    1.64
   6   1  -3    8.66    1.24
   6   1  -3    9.99    1.43
  -6   1   3   10.42    1.40
   6   1  -3    9.94    1.55
   6   1  -3    8.15    1.59
   6   1  -3   11.08    1.94
   6   1  -3   10.19    1.87
   5  -1  -3    8.30    2.00
   5  -1  -3    7.44    1.50
  -5  -1   3    7.14    1.00
  -5  -1   3    7.90    0.98
   5  -1  -3    8.49    1.52
  -5  -1   3    9.68    1.27
   5  -1  -3    5.70    1.15
   5  -1  -3    7.45    2.00
   5   1  -3    5.36    1.22
  -5   1   3    7.33    0.89
   5   1  -3    6.85    1.28
  -5   1   3    5.43    2.14
  -5   1   3    8.26    1.05
   5   1  -3    9.91    1.78
   4  -1  -3   12.26    1.26
  -4  -1   3   12.61    1.37
   4  -1  -3   10.23    1.76
   4  -1  -3   11.69    1.46
   4  -1  -3   11.20    1.57
  -4  -1   3   11.04    1.11
   4  -1  -3   12.79    1.35
  -4  -1   3   11.33    1.17
   4   1  -3   11.77    1.23
   4   1  -3   11.52    1.50
   4   1  -3   10.70    1.63
   4   1  -3   12.10    1.78
   4   1  -3   12.01    1.21
  -4   1   3   11.34    1.37
  -4   1   3   11.70    1.08
   3  -1  -3   25.62    3.59
   3  -1  -3   30.45    2.39
  -3  -1   3   22.26    2.21
  -3  -1   3   28.34    3.56
  -3  -1   3   29.36    2.22
  -3   1   3   27.34    2.25
  -3   1   3   28.16    3.73
  -3   1   3   26.39    2.20
   3   1  -3   31.94    2.53
  -2  -1   3   53.52    3.90
   2  -1  -3   49.58    4.01
   2  -1  -3   51.29    5.08
   2   1  -3   50.17    3.96
  -2   1   3   51.57    3.92
  -2   1   3   52.21    3.88
   2   1  -3   52.09    4.08
  -1  -1   3   67.91    5.32
  -1  -1   3   73.78    6.18
   1  -1  -3   74.42    6.22
  -1  -1   3   67.55    5.29
   1   1  -3   82.31    6.23
   1   1  -3   69.92    5.57
  -1   1   3   65.79    5.58
   1   1  -3   78.54    5.61
   1   1  -3   77.55    6.40
   0  -1   3   48.04    3.96
   0  -1  -3   35.92    4.79
   0  -1   3   41.61    3.45
   0  -1   3   44.08    3.36
   0  -1  -3   43.62    3.33
   0  -1  -3   44.27    3.37
   0  -1  -3   47.38    4.00
   0   1   3   41.88    3.27
   0   1  -3   47.22    5.25
   0   1   3   42.58    3.28
   0   1  -3   42.85    5.47
   0   1  -3   40.49    3.26
   0   1  -3   44.04    3.31
  -1  -1  -3   78.81    6.77
  -1  -1  -3  101.26    7.26
  -1  -1  -3   85.39    6.83
   1  -1   3   82.40    7.10
  -1  -1  -3   87.56    6.82
   1  -1   3  102.82    6.95
  -1  -1  -3   99.60    7.60
  -1   1  -3   98.16    7.35
  -1   1  -3   77.35    6.53
   1   1   3   87.51    6.52
  -2  -1  -3   46.97    4.35
  -2  -1  -3   52.99    4.84
  -2  -1  -3   51.95    3.89
   2  -1   3   49.24    4.24
  -2  -1  -3   54.00    4.05
  -2  -1  -3   52.20    4.03
  -2   1  -3   53.72    4.88
  -3  -1  -3   24.24    2.02
   3  -1   3   20.95    2.03
   3  -1   3   17.56    2.24
  -3  -1  -3   17.55    2.85
  -3  -1  -3   22.74    1.77
  -3  -1  -3   25.77    1.83
  -3  -1  -3   21.71    1.88
   3   1   3   17.71    1.89
  -3   1  -3   23.63    1.77
  -3   1  -3   19.09    2.62
   3   1   3   20.10    1.96
  -4  -1  -3   13.50    1.60
   4  -1   3   12.29    1.85
  -4  -1  -3   10.96    1.12
  -4  -1  -3   11.27    1.32
   4  -1   3    9.61    1.36
  -4  -1  -3   11.43    1.15
   4  -1   3   11.28    1.98
  -4  -1  -3    7.63    2.17
   4  -1   3   12.86    1.88
   4  -1   3   15.43    2.39
  -4   1  -3   13.50    1.66
  -4   1  -3   10.39    1.44
  -4   1  -3   11.45    1.14
   4   1   3   15.57    2.02
   4   1   3   12.50    2.04
  -4   1  -3   11.14    1.13
   4   1   3   14.54    1.91
   4   1   3   13.14    1.59
   5  -1   3    5.85    1.35
  -5  -1  -3    5.34    0.98
  -5  -1  -3    4.08    2.14
  -5  -1  -3    5.84    0.88
  -5  -1  -3    5.35    0.82
  -5  -1  -3    5.12    1.58
   5   1   3    5.06    1.86
   5   1   3    5.04    0.79
  -5   1  -3    7.47    1.66
   5   1   3    5.22    1.07
   5   1   3    4.77    1.68
  -5   1  -3    5.23    0.97
   6  -1   3   12.51    2.19
  -6  -1  -3    8.07    1.43
  -6  -1  -3    8.88    1.31
   6  -1   3   10.82    1.95
  -6  -1  -3   12.25    2.02
   6  -1   3    8.77    1.78
  -6  -1  -3    4.46    2.86
   6  -1   3   11.92    1.78
  -6   1  -3    7.91    1.06
   6   1   3    7.99    1.49
   6   1   3   10.28    1.83
   6   1   3    6.07    1.33
   6   1   3    8.35    1.68
  -6   1  -3    9.55    1.37
   6   1   3   11.65    1.93
  -7  -1  -3    9.52    1.32
   7  -1   3    4.95    1.20
   7  -1   3    6.36    1.40
   7  -1   3    6.77    1.42
   7  -1   3    6.56    1.35
  -7  -1  -3    6.11    1.77
   7   1   3    4.29    1.17
   7   1   3    3.43    1.07
   7   1   3    5.06    1.27
   7   1   3    6.56    1.35
  -8  -1  -3    2.11    0.97
   8  -1   3    1.22    0.69
   8  -1   3    1.31    1.05
   8   1   3    0.53    0.60
   8   1   3    0.50    0.44
  -8  -2   3    5.26    0.92
   8  -2  -3    3.98    0.61
   8  -2  -3    5.23    0.67
   8   2  -3    5.67    1.10
   8   2  -3    6.56    0.84
   8   2  -3    7.65    0.99
   7  -2  -3    7.70    1.50
  -7  -2   3    8.53    1.25
   7  -2  -3    6.34    1.00
   7  -2  -3    5.41    1.13
  -7  -2   3    8.53    1.26
   7  -2  -3    6.50    0.96
   7  -2  -3    5.43    1.24
   7   2  -3    7.41    1.06
   7   2  -3    8.19    1.53
   7   2  -3    6.35    1.29
   7   2  -3    6.97    1.36
   7   2  -3    8.77    1.40
   7   2  -3    6.83    1.05
   6  -2  -3    2.42    1.24
   6  -2  -3    3.91    1.18
   6  -2  -3    3.41    0.83
  -6  -2   3   -0.05    2.60
   6  -2  -3    3.98    1.25
   6  -2  -3    3.53    0.83
  -6  -2   3    2.95    1.25
   6  -2  -3    1.55    1.31
   6  -2  -3    2.38    1.84
   6   2  -3    3.72    1.30
   6   2  -3    3.45    1.26
   6   2  -3    3.27    0.72
   6   2  -3    3.62    1.27
   6   2  -3    3.82    0.89
  -6   2   3    5.81    1.30
  -5  -2   3   12.89    2.81
   5  -2  -3   14.77    1.60
  -5  -2   3   14.83    1.58
  -5  -2   3   15.70    1.77
   5  -2  -3   16.97    2.06
   5  -2  -3   16.67    2.74
   5  -2  -3   15.41    1.69
   5  -2  -3   17.04    1.86
   5  -2  -3   21.50    2.72
  -5  -2   3   15.57    1.50
  -5   2   3   16.28    1.49
   5   2  -3   16.35    1.69
  -5   2   3   16.27    1.68
   5   2  -3   16.18    1.97
   5   2  -3   15.12    1.58
   5   2  -3   17.99    2.15
   5   2  -3   20.02    2.16
   4  -2  -3   27.26    2.43
   4  -2  -3   28.02    2.83
   4  -2  -3   23.43    4.36
   4  -2  -3   25.08    2.15
   4  -2  -3   24.06    2.91
  -4  -2   3   24.01    2.29
   4  -2  -3   22.99    2.26
  -4  -2   3   24.64    2.04
   4  -2  -3   26.31    2.20
  -4  -2   3   23.25    2.04
  -4  -2   3   23.10    3.86
   4   2  -3   22.10    1.96
   4   2  -3   21.85    2.17
   4   2  -3   18.47    2.26
   4   2  -3   21.79    2.21
   4   2  -3   20.53    1.84
  -3  -2   3   67.27    6.59
   3  -2  -3   70.02    6.80
   3  -2  -3   68.67    5.33
  -3  -2   3   69.56    5.26
   3   2  -3   72.46    5.88
  -3   2   3   65.08    5.06
  -3   2   3   66.54    5.11
   2  -2  -3   26.53    2.69
  -2  -2   3   35.85    2.60
  -2  -2   3   36.11    3.81
   2  -2  -3   35.45    4.01
  -2   2   3   33.58    2.54
   2   2  -3   32.44    2.76
  -1  -2   3    6.93    0.82
  -1  -2   3    6.69    0.83
   1   2  -3    8.71    1.80
   1   2  -3    6.35    2.05
   1   2  -3    8.12    0.91
  -1   2   3    6.26    0.77
  -1   2   3    7.19    0.84
   0  -2  -3   81.33    6.73
   0  -2  -3   75.24    5.91
   0  -2   3   82.85    6.47
   0  -2   3   80.44    6.10
   0  -2  -3   69.81    6.74
   0  -2   3   85.69    6.12
   0   2   3   74.71    5.85
   0   2  -3   79.28    6.61
   0   2  -3   81.08    6.91
  -1  -2  -3    5.87    0.86
   1  -2   3    3.57    0.87
  -1  -2  -3    5.63    0.74
  -1  -2  -3    6.06    0.83
   1   2   3    5.46    0.78
  -1   2  -3    5.00    1.38
   1   2   3    5.41    0.83
  -1   2  -3    5.94    0.74
  -2  -2  -3   40.25    4.07
  -2  -2  -3   39.10    3.80
   2  -2   3   37.30    3.51
   2   2   3   32.86    2.67
  -2   2  -3   34.94    3.52
   2   2   3   34.30    2.82
  -3  -2  -3   73.67    5.20
  -3  -2  -3   72.77    5.36
   3  -2   3   68.02    5.32
   3  -2   3   65.26    5.65
  -3  -2  -3   63.93    6.32
  -3  -2  -3   67.32    5.27
  -3  -2  -3   67.82    5.17
   3   2   3   67.27    5.19
  -3   2  -3   67.19    6.01
  -3   2  -3   64.27    5.03
  -4  -2  -3   21.14    2.39
  -4  -2  -3   25.32    3.73
  -4  -2  -3   26.04    2.28
   4  -2   3   29.72    3.06
   4  -2   3   32.76    2.84
   4  -2   3   26.21    2.39
   4  -2   3   27.15    2.94
  -4  -2  -3   30.40    2.63
   4  -2   3   24.57    2.86
   4  -2   3   29.80    2.76
  -4  -2  -3   32.39    2.63
   4   2   3   29.90    2.46
  -4   2  -3   30.46    2.62
  -4   2  -3   22.87    3.41
   4   2   3   30.87    2.85
  -4   2  -3   22.97    2.16
   4   2   3   25.63    2.52
   4   2   3   29.19    2.97
  -5  -2  -3   17.34    2.10
   5  -2   3   10.98    1.85
   5  -2   3   12.86    1.95
  -5  -2  -3    9.07    2.54
  -5  -2  -3   13.44    1.53
  -5  -2  -3   12.44    1.40
  -5  -2  -3   13.03    1.60
  -5  -2  -3   12.22    1.27
   5  -2   3    8.54    1.74
   5   2   3    9.40    1.80
  -5   2  -3   12.44    1.49
  -5   2  -3   14.99    1.64
  -5   2  -3   10.52    1.88
   5   2   3   14.23    2.05
   5   2   3   12.23    2.50
   5   2   3   11.86    2.01
  -5   2  -3   13.46    1.51
   5   2   3   11.64    1.85
  -6  -2  -3    4.71    1.29
  -6  -2  -3    5.36    0.82
  -6  -2  -3    2.63    1.18
   6  -2   3    2.07    1.22
   6  -2   3    1.04    1.61
   6  -2   3    4.00    1.34
   6  -2   3    3.30    1.43
  -6  -2  -3    3.45    2.77
   6   2   3    1.39    1.10
  -6   2  -3    4.32    3.09
   6   2   3    4.89    1.05
   6   2   3    2.96    1.38
   6   2   3    2.20    1.29
   6   2   3    2.17    1.31
  -6   2  -3    3.33    1.05
  -7  -2  -3    6.39    0.91
   7  -2   3    4.16    1.51
   7  -2   3    6.58    1.38
   7  -2   3    4.87    1.35
   7   2   3    3.64    1.10
   7   2   3    4.55    1.17
  -7   2  -3    3.44    0.59
  -7   2  -3    4.84    0.82
   7   2   3    3.76    1.14
   7   2   3    3.42    1.10
   8  -2   3    6.06    1.08
   8  -2   3    6.96    1.01
   8   2   3    2.12    0.50
   7  -3  -3    5.23    1.27
   7  -3  -3    4.11    1.87
   7  -3  -3    4.86    0.80
   7  -3  -3    6.39    0.91
  -7  -3   3    7.70    0.90
   7   3  -3    5.50    1.32
   7   3  -3    7.02    1.41
   7   3  -3    4.92    0.78
   7   3  -3    7.18    1.89
   7   3  -3    6.95    0.97
   6  -3  -3    5.20    1.48
  -6  -3   3    9.30    1.68
   6  -3  -3    9.03    1.24
   6  -3  -3    9.04    1.52
  -6  -3   3    7.47    1.21
  -6  -3   3    8.20    1.25
   6   3  -3    9.02    1.32
   6   3  -3   10.49    1.88
   6   3  -3    7.99    1.17
  -6   3   3    7.74    1.11
   6   3  -3    7.35    1.61
   6   3  -3    9.77    1.63
  -5  -3   3   12.90    1.36
  -5  -3   3   11.96    1.28
  -5  -3   3    9.76    2.69
   5  -3  -3   11.49    1.55
   5  -3  -3   12.45    1.75
   5  -3  -3   14.41    1.53
   5  -3  -3    9.33    1.71
  -5  -3   3   16.05    1.72
  -5  -3   3    7.75    2.72
   5  -3  -3   10.97    1.82
   5  -3  -3   13.15    1.93
  -5   3   3   12.40    1.45
   5   3  -3   12.74    1.38
   5   3  -3   11.18    1.70
   5   3  -3   12.77    1.91
   5   3  -3   13.56    1.99
   5   3  -3   13.45    1.42
   4  -3  -3    3.23    0.93
   4  -3  -3    1.92    0.82
  -4  -3   3    2.93    0.60
   4  -3  -3    3.72    0.76
  -4  -3   3    3.82    0.63
  -4  -3   3    3.55    0.82
  -4  -3   3    3.57    1.56
   4  -3  -3    4.60    1.25
   4  -3  -3    3.00    0.69
   4  -3  -3    1.61    1.45
   4  -3  -3    3.30    1.67
   4   3  -3    4.62    1.28
   4   3  -3    3.56    0.97
  -4   3   3    2.26    1.36
   4   3  -3    3.55    0.71
   4   3  -3    3.54    0.93
  -4   3   3    3.27    0.58
  -3  -3   3    7.16    0.87
  -3  -3   3    5.49    0.88
  -3  -3   3    5.91    0.83
  -3  -3   3    5.02    2.57
   3   3  -3    3.97    0.95
  -3   3   3    4.52    0.64
  -3   3   3    6.19    0.75
   2  -3  -3   65.45    5.12
   2  -3  -3   71.16    5.13
   2  -3  -3   68.00    6.50
  -2  -3   3   64.35    6.56
   2   3  -3   64.31    6.11
   2   3  -3   60.35    7.45
  -2   3   3   62.87    4.78
   2   3  -3   60.10    4.83
   2   3  -3   60.94    4.85
  -2   3   3   62.41    4.74
   2   3  -3   71.44    5.01
  -1  -3   3   17.80    1.48
  -1  -3   3   17.62    2.43
   1  -3  -3   16.11    2.79
  -1  -3   3   17.01    1.52
   1   3  -3   19.43    2.97
   1   3  -3   15.27    1.52
  -1   3   3   16.36    1.47
   1   3  -3   18.22    2.72
   0  -3   3   15.26    2.11
   0  -3  -3   11.64    2.39
   0  -3  -3   14.68    1.30
   0  -3   3   13.42    1.39
   0  -3  -3   14.60    1.40
   0   3   3   13.85    1.30
   0   3  -3   15.38    2.33
   0   3  -3   14.32    1.33
   0   3  -3   10.72    2.70
  -1  -3  -3   13.54    1.22
  -1  -3  -3   14.81    1.36
  -1  -3  -3   12.27    2.37
   1  -3   3   14.01    1.80
  -1  -3  -3   13.28    1.34
  -1  -3  -3   12.79    2.74
  -1   3  -3   13.10    2.41
  -1   3  -3   16.23    2.99
   1   3   3   15.07    1.33
  -1   3  -3   13.36    1.26
  -2  -3  -3   52.72    4.11
  -2  -3  -3   60.20    5.08
   2  -3   3   47.85    4.42
  -2  -3  -3   44.88    4.97
  -2  -3  -3   55.85    4.13
   2   3   3   58.74    4.26
   2   3   3   47.81    4.33
  -2   3  -3   61.10    5.19
  -2   3  -3   54.55    4.22
   3  -3   3    8.82    1.21
  -3  -3  -3    7.40    0.95
  -3  -3  -3    8.49    1.30
   3  -3   3    8.20    1.62
  -3  -3  -3    8.79    1.21
  -3  -3  -3    7.00    1.01
  -3   3  -3    7.02    1.76
   3   3   3    6.38    1.43
  -3   3  -3    6.92    0.91
   4  -3   3    4.25    1.40
  -4  -3  -3    3.39    0.85
   4  -3   3    2.74    0.73
   4  -3   3    3.02    1.17
  -4  -3  -3    3.27    0.72
   4  -3   3    2.87    0.90
  -4  -3  -3    3.72    1.15
  -4  -3  -3    3.85    1.04
   4  -3   3    4.49    1.37
  -4  -3  -3    2.29    0.70
  -4  -3  -3    2.41    1.70
   4   3   3    1.83    1.32
   4   3   3    6.24    1.35
   4   3   3    5.25    1.60
   4   3   3    3.26    0.84
   4   3   3    3.32    0.93
  -4   3  -3    3.71    0.75
  -4   3  -3    3.21    1.50
  -5  -3  -3   12.29    1.44
  -5  -3  -3   12.42    1.51
   5  -3   3   16.44    2.20
  -5  -3  -3   15.72    1.83
  -5  -3  -3   14.34    3.10
   5  -3   3   14.76    2.34
   5  -3   3   18.21    2.57
  -5  -3  -3   13.43    2.13
   5  -3   3   13.34    2.04
   5  -3   3   15.37    2.59
   5  -3   3   13.68    2.06
  -5   3  -3    8.74    2.38
   5   3   3   12.70    1.98
  -5   3  -3   12.12    1.20
  -5   3  -3   14.56    1.58
   5   3   3   14.63    1.52
  -5   3  -3   11.50    1.97
   5   3   3   13.14    2.09
   5   3   3   16.77    2.11
   5   3   3   14.59    1.95
   5   3   3   12.92    2.03
  -6  -3  -3    9.03    1.23
  -6  -3  -3    7.81    1.62
   6  -3   3   10.60    1.96
  -6  -3  -3    7.98    2.81
   6  -3   3   10.55    1.71
  -6  -3  -3    8.74    1.33
  -6   3  -3    9.51    1.13
   6   3   3   11.12    1.71
   6   3   3   11.71    2.03
   6   3   3    9.08    1.71
   6   3   3   11.66    1.86
   6   3   3    7.84    1.30
   6   3   3   11.61    1.84
   7  -3   3   11.51    1.87
  -7  -3  -3    8.49    1.05
   7  -3   3    5.83    1.25
   7  -3   3   10.61    2.79
   7  -3   3    8.58    1.56
  -7  -3  -3    7.98    1.10
  -7  -3  -3    6.76    1.08
   7   3   3    4.84    1.06
   7   3   3    5.43    1.22
   7   3   3    7.89    1.01
  -7   3  -3    6.88    0.95
   7  -4  -3    1.81    0.74
   7  -4  -3    1.85    0.71
   7  -4  -3    1.02    1.23
   7  -4  -3    2.49    0.99
   7   4  -3    3.42    1.08
   7   4  -3    2.53    0.66
   7   4  -3    1.96    0.74
   7   4  -3    2.60    1.40
   7   4  -3    3.14    1.02
   6  -4  -3   18.67    2.17
  -6  -4   3   12.59    1.56
   6  -4  -3   16.91    1.61
  -6  -4   3   15.69    1.65
  -6  -4   3   12.45    3.11
  -6  -4   3   14.64    2.11
   6  -4  -3   18.15    1.74
   6  -4  -3   12.77    2.12
   6   4  -3   14.15    2.13
   6   4  -3   14.50    2.21
   6   4  -3   16.27    2.37
   6   4  -3   14.02    1.59
   6   4  -3   19.88    2.13
   6   4  -3   15.11    1.68
  -5  -4   3    6.75    2.29
   5  -4  -3    6.73    1.64
  -5  -4   3    8.95    1.61
   5  -4  -3    3.46    2.91
   5  -4  -3    9.35    1.69
   5  -4  -3    7.88    1.07
   5  -4  -3    6.50    1.56
  -5  -4   3    6.12    0.91
   5  -4  -3    7.17    1.02
   5  -4  -3    5.17    1.25
   5   4  -3    6.67    0.98
   5   4  -3    5.19    1.20
   5   4  -3    6.37    0.91
   5   4  -3    7.78    1.58
   5   4  -3    8.33    1.49
  -5   4   3    9.05    1.29
  -5   4   3    5.41    0.78
  -4  -4   3    9.21    1.40
   4  -4  -3    8.53    1.44
   4  -4  -3    9.51    1.13
   4  -4  -3   11.46    1.61
   4  -4  -3    8.91    1.66
   4  -4  -3    5.38    2.23
  -4  -4   3    7.65    1.04
   4  -4  -3    7.52    2.64
  -4  -4   3    8.79    1.03
  -4   4   3   11.47    1.15
  -4   4   3    8.69    0.98
   4   4  -3    9.05    1.21
   4   4  -3    8.12    1.35
   4   4  -3    8.97    1.27
   4   4  -3   10.12    1.51
   4   4  -3    9.55    1.56
  -3  -4   3    4.60    1.51
   3  -4  -3    4.75    1.78
   3  -4  -3    7.17    1.40
  -3  -4   3    7.45    1.10
   3  -4  -3    9.79    1.29
   3  -4  -3    8.92    1.03
   3  -4  -3    6.65    1.30
  -3  -4   3    6.55    0.86
   3  -4  -3    9.29    1.14
  -3  -4   3    7.70    1.15
  -3  -4   3    4.19    1.70
  -3  -4   3    6.65    0.89
  -3   4   3    6.66    0.88
   3   4  -3    6.44    1.08
   3   4  -3    7.67    0.99
   3   4  -3    7.26    1.29
  -2  -4   3   32.51    3.70
  -2  -4   3   29.26    3.52
   2  -4  -3   24.56    2.42
  -2  -4   3   29.82    2.25
  -2  -4   3   30.22    2.28
  -2  -4   3   28.86    2.37
   2  -4  -3   25.53    2.27
   2  -4  -3   26.71    3.76
  -2   4   3   26.24    2.29
   2   4  -3   34.32    2.73
   2   4  -3   26.38    4.30
   2   4  -3   32.16    4.18
  -2   4   3   29.52    2.28
   2   4  -3   27.16    2.54
   2   4  -3   28.02    2.37
   1  -4  -3   12.92    2.69
  -1  -4   3   15.59    2.40
  -1  -4   3   16.55    1.50
  -1  -4   3   19.12    2.84
   1   4  -3   16.35    3.22
   1   4  -3   19.74    2.90
   1   4  -3   18.62    1.59
  -1   4   3   15.70    1.50
   0  -4   3    0.59    0.66
   0  -4  -3    1.67    0.56
   0  -4  -3    1.25    0.95
   0  -4   3    1.88    0.64
   0  -4  -3    1.58    0.65
   0  -4  -3    1.02    2.14
   0  -4   3    1.02    1.14
   0   4  -3    0.83    0.50
   0   4  -3    3.07    1.33
   0   4  -3    1.75    0.88
  -1  -4  -3   24.03    3.08
  -1  -4  -3   23.04    1.97
  -1  -4  -3   21.83    1.92
  -1  -4  -3   21.83    3.04
  -1  -4  -3   20.72    1.79
   1  -4   3   20.17    2.29
  -1   4  -3   19.26    2.58
   1   4   3   19.38    1.63
   1   4   3   20.55    1.73
  -1   4  -3   18.41    1.68
  -1   4  -3   22.12    4.29
  -2  -4  -3   29.04    3.65
  -2  -4  -3   31.52    3.64
   2  -4   3   26.18    2.82
  -2  -4  -3   28.19    2.31
  -2   4  -3   26.61    2.35
  -2   4  -3   28.06    4.44
   2   4   3   31.29    2.55
  -2   4  -3   26.57    3.50
   2   4   3   34.95    2.75
   2   4   3   28.70    2.46
   3  -4   3   12.16    1.88
  -3  -4  -3   10.05    1.30
   3  -4   3    9.87    1.62
  -3  -4  -3    8.14    2.23
   3  -4   3    7.39    1.65
  -3  -4  -3    9.81    1.37
  -3  -4  -3    9.18    1.06
  -3  -4  -3    8.77    1.09
   3   4   3    8.51    1.29
  -3   4  -3    9.45    1.02
   3   4   3    9.70    1.39
  -3   4  -3    8.20    2.01
   3   4   3   11.19    1.68
  -3   4  -3    6.79    3.03
   3   4   3    9.33    1.28
  -3   4  -3    7.55    1.01
  -4  -4  -3   10.44    1.88
  -4  -4  -3    9.64    1.09
   4  -4   3    8.05    1.83
   4  -4   3   10.48    1.63
   4  -4   3    7.72    1.67
   4  -4   3    8.17    1.59
   4  -4   3   11.74    1.59
  -4  -4  -3    9.44    1.17
  -4  -4  -3    8.94    1.18
  -4  -4  -3    8.18    2.57
  -4  -4  -3   11.04    1.65
  -4   4  -3    5.89    2.00
   4   4   3   10.36    1.55
   4   4   3    9.30    1.49
   4   4   3    8.57    1.70
   4   4   3   11.03    1.73
  -4   4  -3    9.53    1.23
   4   4   3   11.91    2.04
   4   4   3   10.44    1.40
  -5  -4  -3    5.19    2.49
  -5  -4  -3    4.35    0.83
   5  -4   3   10.33    2.80
   5  -4   3    8.59    1.54
   5  -4   3    6.35    1.58
   5  -4   3    6.94    1.57
  -5  -4  -3    5.45    1.87
   5  -4   3    7.20    1.74
   5  -4   3    5.50    1.56
   5   4   3    5.18    1.52
   5   4   3    5.23    1.34
   5   4   3    6.46    1.58
   5   4   3    5.86    1.17
  -5   4  -3    4.53    1.90
   5   4   3    4.69    1.44
  -5   4  -3    6.84    0.81
   5   4   3    4.06    0.88
  -6  -4  -3   11.11    3.53
   6  -4   3   15.87    2.31
   6  -4   3   14.41    2.21
  -6  -4  -3   20.24    2.10
   6  -4   3   20.24    2.37
  -6  -4  -3   19.30    2.89
   6  -4   3   25.40    4.28
  -6  -4  -3   15.78    1.71
  -6  -4  -3   15.86    1.68
   6   4   3   15.32    1.92
   6   4   3   17.54    1.60
   6   4   3   14.77    2.28
   6   4   3   19.64    2.28
  -6   4  -3   13.94    1.97
  -6   4  -3   14.32    1.49
  -7  -4  -3    2.84    0.88
   7  -4   3    3.98    1.56
   7  -4   3    1.42    1.00
  -7  -4  -3    2.11    0.58
   7  -4   3    2.34    1.33
  -7  -4  -3    2.14    0.69
  -7   4  -3    1.64    0.63
   7   4   3    1.94    0.93
   7   4   3    3.94    0.90
  -7  -5   3    2.00    0.66
   7  -5  -3    1.26    0.60
   7  -5  -3    0.72    0.66
  -7  -5   3    1.58    0.71
   7  -5  -3    2.14    0.99
   7   5  -3    2.24    0.82
   7   5  -3    0.48    0.93
   7   5  -3    2.12    1.02
   7   5  -3    0.92    0.76
   7   5  -3    1.39    1.19
   6  -5  -3   10.07    1.68
   6  -5  -3    6.93    1.36
  -6  -5   3    9.26    1.11
  -6  -5   3    8.14    1.06
   6  -5  -3    8.92    1.32
   6  -5  -3    5.97    0.96
   6   5  -3    7.37    1.04
   6   5  -3    9.49    1.62
   6   5  -3    8.40    1.45
   6   5  -3    6.47    1.12
   6   5  -3    7.62    1.53
   5  -5  -3    0.93    1.13
   5  -5  -3    2.39    0.90
   5  -5  -3    1.84    0.76
   5  -5  -3    1.57    0.99
   5  -5  -3   -1.67    3.01
  -5  -5   3   -0.71    1.83
  -5  -5   3    1.05    1.20
   5  -5  -3    1.25    1.24
   5  -5  -3    7.11    3.84
  -5  -5   3    2.10    0.63
   5   5  -3    1.60    0.71
  -5   5   3    0.63    0.68
   5   5  -3    1.43    1.03
   5   5  -3    1.33    0.87
   5   5  -3    1.45    1.12
  -4  -5   3    9.23    1.07
   4  -5  -3    4.31    2.53
   4  -5  -3    8.27    1.09
   4  -5  -3   10.09    2.59
   4  -5  -3    9.76    1.17
   4  -5  -3    9.14    1.60
  -4  -5   3   12.81    1.52
  -4  -5   3    6.52    1.10
   4  -5  -3    8.91    1.42
  -4  -5   3    9.44    2.54
   4   5  -3   11.46    1.39
   4   5  -3   10.88    1.82
   4   5  -3    9.55    1.30
   4   5  -3    9.85    1.71
   4   5  -3    8.70    1.45
   4   5  -3    8.86    1.24
  -3  -5   3    2.75    1.33
  -3  -5   3    2.62    0.53
   3  -5  -3    0.21    1.52
  -3  -5   3    2.48    1.37
   3  -5  -3    2.87    0.77
   3  -5  -3    1.76    1.12
   3  -5  -3    1.07    0.95
   3  -5  -3    3.20    1.29
  -3  -5   3    2.36    0.55
  -3  -5   3    2.57    0.83
  -3  -5   3    2.84    0.57
  -3   5   3    2.81    0.47
   3   5  -3    1.91    0.61
   3   5  -3    1.30    0.91
   3   5  -3    2.72    0.93
   3   5  -3   -0.35    1.80
   3   5  -3    2.40    1.20
  -2  -5   3    5.54    0.70
   2  -5  -3    6.98    1.31
  -2  -5   3    5.71    0.86
   2  -5  -3    5.12    1.60
  -2  -5   3    5.31    0.72
  -2  -5   3    4.24    0.89
   2   5  -3    3.92    0.93
   2   5  -3    3.26    1.72
  -2   5   3    4.28    0.65
   2   5  -3    4.30    0.68
   2   5  -3    1.48    1.86
   2   5  -3    5.30    0.91
  -1  -5   3   17.93    2.71
  -1  -5   3   14.11    1.80
  -1  -5   3   18.12    1.64
   1  -5  -3   17.10    3.31
   1   5  -3   20.51    1.73
   1   5  -3   22.42    1.73
  -1   5   3   18.66    1.69
   1   5  -3   21.97    3.30
   1   5  -3   17.44    3.58
  -1   5   3   19.52    1.66
  -1   5   3   18.61    1.65
   1   5  -3   17.58    1.87
   0  -5   3   36.99    4.75
   0  -5   3   44.46    4.86
   0  -5  -3   52.93    3.43
   0  -5   3   43.85    3.50
   0  -5   3   32.93    3.64
   0  -5  -3   44.23    3.51
   0  -5  -3   44.61    4.73
   0   5  -3   47.45    5.74
   0   5   3   48.65    3.77
   0   5   3   46.83    3.76
   0   5   3   49.49    3.72
   0   5  -3   51.32    5.17
   0   5  -3   45.62    3.67
   0   5  -3   48.42    3.83
  -1  -5  -3   26.86    2.11
  -1  -5  -3   27.18    2.27
   1  -5   3   23.87    3.36
   1  -5   3   23.04    3.04
  -1  -5  -3   26.44    3.82
  -1  -5  -3   25.61    2.22
  -1  -5  -3   24.04    3.44
  -1  -5  -3   29.99    2.36
  -1   5  -3   21.37    2.07
   1   5   3   26.66    2.02
  -1   5  -3   26.01    3.48
  -1   5  -3   25.07    4.12
   2  -5   3    4.58    1.23
  -2  -5  -3    5.81    1.06
  -2  -5  -3    6.38    0.93
  -2  -5  -3    5.87    2.01
  -2  -5  -3    6.58    0.85
  -2  -5  -3    5.94    1.05
  -2   5  -3    3.82    1.51
   2   5   3    5.04    0.67
  -2   5  -3    4.19    0.68
   2   5   3    4.58    0.85
  -2   5  -3    2.79    1.75
   3  -5   3    0.84    1.02
  -3  -5  -3    2.37    1.57
  -3  -5  -3    1.99    0.73
  -3  -5  -3    1.03    0.50
  -3  -5  -3    1.15    0.94
   3  -5   3    1.33    1.24
  -3  -5  -3    1.59    0.54
   3  -5   3    1.36    0.80
   3  -5   3    1.77    1.45
   3  -5   3    1.28    1.13
  -3  -5  -3    2.23    0.86
   3  -5   3    0.11    1.63
   3   5   3    2.58    0.93
   3   5   3    2.71    0.68
  -3   5  -3   -0.04    1.52
  -3   5  -3    1.42    2.08
   3   5   3    0.31    1.29
   3   5   3    1.50    0.75
   3   5   3    0.40    1.21
  -4  -5  -3    6.17    0.98
  -4  -5  -3    6.43    1.27
   4  -5   3    4.39    1.47
   4  -5   3    3.83    1.42
  -4  -5  -3    7.46    1.40
  -4  -5  -3    7.05    0.96
   4  -5   3    7.32    1.40
   4  -5   3    7.96    1.40
  -4  -5  -3    7.85    1.05
   4  -5   3    5.98    1.49
  -4  -5  -3    4.10    2.20
  -4   5  -3    2.79    3.82
   4   5   3    6.74    1.92
   4   5   3    4.00    1.14
   4   5   3    4.78    1.05
   4   5   3    4.65    1.37
  -4   5  -3    5.66    0.91
  -4   5  -3    2.96    2.34
   4   5   3    6.53    0.91
   4   5   3    3.87    1.72
   5  -5   3    2.74    1.67
  -5  -5  -3    1.09    1.17
  -5  -5  -3   -1.80    2.24
  -5  -5  -3    1.07    0.66
   5  -5   3    1.12    1.38
   5  -5   3    1.19    1.49
  -5  -5  -3    2.81    0.86
   5  -5   3    2.53    1.35
   5  -5   3    4.05    1.89
   5  -5   3    0.76    1.23
   5   5   3    0.55    0.81
   5   5   3    1.04    0.92
   5   5   3   -0.63    1.18
   5   5   3    0.55    0.76
  -5   5  -3   -1.12    2.10
   5   5   3    0.44    1.41
  -5   5  -3    1.62    0.80
   6  -5   3    8.84    1.65
  -6  -5  -3    5.98    1.16
   6  -5   3    6.05    2.01
   6  -5   3    9.25    1.93
   6  -5   3    7.40    1.54
  -6  -5  -3    7.95    1.22
  -6  -5  -3    5.47    1.00
  -6   5  -3    7.56    0.92
   6   5   3    5.77    1.49
   7  -5   3    1.43    1.04
  -7  -5  -3    1.99    0.83
  -7  -5  -3    0.61    0.56
   7  -5   3   -0.05    1.51
  -7  -5  -3    1.48    0.59
   7   5   3   -0.11    0.83
   7   5   3    1.37    0.82
   7   5   3    0.35    0.43
   7  -6  -3    2.99    0.89
   7  -6  -3    4.28    2.41
   7  -6  -3    3.63    0.68
  -7  -6   3    4.22    0.85
   7   6  -3    4.08    0.71
   7   6  -3    4.27    0.77
   7   6  -3    4.25    1.02
   7   6  -3    3.91    1.16
   6  -6  -3    1.00    0.76
   6  -6  -3    1.95    1.25
  -6  -6   3    2.20    0.80
   6  -6  -3    1.99    1.08
   6  -6  -3    1.53    0.71
   6   6  -3    1.98    0.86
   6   6  -3    2.14    0.74
   6   6  -3    3.73    1.26
   6   6  -3    3.57    1.31
   6   6  -3    2.72    0.66
   5  -6  -3   34.07    2.92
  -5  -6   3   30.63    2.67
  -5  -6   3   30.67    2.69
   5  -6  -3   32.53    4.22
   5  -6  -3   31.35    3.22
  -5  -6   3   35.19    3.42
  -5  -6   3   24.77    6.69
   5  -6  -3   32.09    3.11
   5  -6  -3   34.30    2.74
   5   6  -3   33.00    3.08
   5   6  -3   33.75    3.21
   5   6  -3   32.38    3.13
   5   6  -3   31.70    2.71
  -5   6   3   31.88    2.81
  -4  -6   3    5.04    0.81
   4  -6  -3    4.87    0.88
   4  -6  -3    2.68    1.93
  -4  -6   3    6.95    1.42
  -4  -6   3    1.82    2.33
  -4  -6   3    4.53    0.77
   4  -6  -3    4.30    1.38
   4  -6  -3    5.31    0.94
  -4  -6   3    5.56    0.87
   4  -6  -3    3.90    1.26
  -4   6   3    4.32    0.73
   4   6  -3    4.84    1.08
   4   6  -3    5.31    0.98
   4   6  -3    4.82    0.91
  -4   6   3    5.16    0.91
   4   6  -3    4.42    1.22
   4   6  -3    4.95    1.40
   3  -6  -3   11.30    2.09
   3  -6  -3   15.35    1.98
   3  -6  -3   11.76    2.10
   3  -6  -3   12.07    1.49
  -3  -6   3   10.89    1.35
   3  -6  -3    8.61    2.56
  -3  -6   3   10.24    2.93
  -3  -6   3   10.49    1.25
   3  -6  -3   11.13    1.46
  -3  -6   3   15.91    1.94
  -3  -6   3   14.53    1.63
   3   6  -3   12.44    1.81
  -3   6   3   14.43    1.95
  -3   6   3   10.29    1.18
   3   6  -3   11.63    1.87
   3   6  -3   10.03    1.55
   3   6  -3   12.49    1.40
  -3   6   3   11.25    1.29
   3   6  -3   10.71    1.41
  -2  -6   3    3.10    1.66
  -2  -6   3    6.31    0.86
   2  -6  -3    7.09    1.27
   2  -6  -3    4.78    1.54
   2  -6  -3    3.06    1.25
  -2  -6   3    5.76    0.93
   2  -6  -3    7.77    1.28
   2  -6  -3   10.05    1.73
  -2  -6   3    6.15    0.89
  -2  -6   3    7.86    1.14
   2   6  -3    5.54    2.09
  -2   6   3    7.62    0.90
   2   6  -3    5.14    1.43
   2   6  -3    6.65    1.22
  -2   6   3    6.49    0.92
   2   6  -3    2.37    2.86
   2   6  -3    6.41    1.00
   2   6  -3    8.34    0.85
  -1  -6   3   16.13    2.92
   1  -6  -3   19.76    3.43
  -1  -6   3   19.33    1.85
  -1  -6   3   16.11    1.50
  -1  -6   3   19.60    3.44
  -1  -6   3   18.54    1.69
  -1   6   3   16.41    1.61
   1   6  -3   19.66    3.94
   1   6  -3   18.10    1.55
  -1   6   3   19.52    1.65
  -1   6   3   16.97    1.68
   1   6  -3   20.55    1.85
   1   6  -3   13.58    2.92
   1   6  -3   19.37    1.69
   1   6  -3   18.01    1.79
   0  -6  -3    2.23    0.87
   0  -6   3    2.32    0.73
   0  -6  -3    0.41    1.26
   0  -6  -3    2.62    0.67
   0   6  -3    1.94    0.70
   0   6  -3    2.05    0.51
   0   6   3    1.49    0.64
   0   6  -3    1.91    1.86
   0   6   3    2.14    0.61
  -1  -6  -3   13.54    1.89
  -1  -6  -3   16.85    3.28
  -1  -6  -3   20.33    1.75
   1  -6   3   15.67    1.66
   1  -6   3   15.25    2.18
  -1  -6  -3   15.86    1.73
  -1   6  -3   15.49    1.44
   1   6   3   14.35    1.52
  -1   6  -3   16.45    3.10
  -1   6  -3   18.23    1.59
   1   6   3   17.10    1.63
  -2  -6  -3    8.77    1.30
  -2  -6  -3    8.90    0.98
   2  -6   3    7.36    1.60
  -2  -6  -3    5.71    2.72
  -2  -6  -3    6.73    0.94
  -2  -6  -3    4.45    1.78
  -2  -6  -3    8.53    1.32
   2  -6   3    5.89    1.49
  -2  -6  -3    7.49    1.10
   2   6   3    6.76    0.85
  -2   6  -3    8.74    0.91
   2   6   3    7.77    1.10
  -2   6  -3    3.56    2.22
  -2   6  -3    4.83    1.87
   2   6   3    5.75    1.18
   3  -6   3    9.45    1.60
  -3  -6  -3    7.48    1.43
  -3  -6  -3   13.73    1.77
  -3  -6  -3   12.92    1.91
   3  -6   3   13.42    1.88
  -3  -6  -3    7.47    2.69
   3  -6   3    9.79    1.44
   3  -6   3    7.72    2.43
  -3  -6  -3   12.67    1.48
   3  -6   3   10.92    1.54
   3  -6   3   13.15    2.14
  -3  -6  -3   11.90    1.26
  -3   6  -3    6.77    2.90
  -3   6  -3   15.38    3.04
   3   6   3    8.17    1.49
   3   6   3   11.13    1.34
  -3   6  -3   12.45    1.22
  -3   6  -3   11.00    1.30
  -4  -6  -3    3.32    0.84
  -4  -6  -3    2.51    2.28
  -4  -6  -3    3.11    0.73
  -4  -6  -3    2.67    0.69
   4  -6   3    5.14    1.68
  -4  -6  -3   -1.20    2.70
   4  -6   3    3.75    1.77
  -4  -6  -3    3.06    1.45
   4  -6   3    2.97    1.45
  -4  -6  -3    2.71    1.24
   4  -6   3    3.53    1.44
   4  -6   3    2.78    1.32
  -4   6  -3    3.36    4.27
   4   6   3    3.27    1.32
   4   6   3    1.79    1.94
   4   6   3    4.24    1.35
   4   6   3    3.33    0.96
   4   6   3    5.37    0.86
  -4   6  -3   -0.37    2.17
  -4   6  -3    3.32    0.87
  -5  -6  -3   29.32    2.74
  -5  -6  -3   30.05    2.53
  -5  -6  -3   29.40    3.28
  -5  -6  -3   31.46    2.66
  -5  -6  -3   24.02    5.86
   5  -6   3   32.23    3.84
   5  -6   3   30.95    3.12
   5  -6   3   25.03    3.06
   5  -6   3   26.34    3.43
   5  -6   3   30.35    3.17
   5   6   3   30.62    2.61
   5   6   3   28.29    3.33
   5   6   3   30.26    2.66
  -5   6  -3   27.31    2.62
   6  -6   3    0.79    1.19
   6  -6   3    0.62    1.45
   6  -6   3    1.70    1.26
  -6  -6  -3    1.60    0.89
  -6  -6  -3    1.82    1.24
   6   6   3    0.47    0.63
   6   6   3    0.35    0.53
  -6   6  -3   -0.12    0.43
   6   6   3    1.13    1.22
  -7  -6  -3    4.67    0.80
   7  -6   3    4.18    1.03
  -7  -6  -3    2.67    0.91
   7  -6   3    4.17    1.48
  -7  -6  -3    5.31    0.96
   7   6   3    3.98    0.76
   7   6   3    3.64    1.19
  -7  -7   3    3.79    0.73
   7   7  -3    1.92    0.69
   7   7  -3    2.74    0.61
   7   7  -3    1.91    0.95
   6  -7  -3    5.51    1.25
   6  -7  -3    6.45    1.43
  -6  -7   3    8.30    1.03
   6  -7  -3    6.33    0.99
   6  -7  -3    6.64    1.37
  -6  -7   3    7.88    1.04
   6   7  -3    7.20    1.56
   6   7  -3    5.01    0.87
   6   7  -3    4.62    0.83
  -5  -7   3   -3.35    1.99
  -5  -7   3    1.90    0.74
   5  -7  -3    0.39    0.81
   5  -7  -3    1.24    1.11
   5  -7  -3   -0.59    0.75
  -5  -7   3    0.48    0.66
  -5  -7   3   -0.47    0.63
  -5  -7   3   -1.92    2.40
  -5   7   3    1.20    1.29
   5   7  -3    1.26    1.02
  -5   7   3   -0.25    0.88
   5   7  -3    0.31    0.55
   5   7  -3    0.24    1.40
  -4  -7   3   20.43    1.87
   4  -7  -3   20.25    2.01
   4  -7  -3   19.06    2.58
  -4  -7   3   26.23    2.75
  -4  -7   3   22.10    4.52
   4  -7  -3   16.48    2.29
  -4  -7   3   23.98    1.99
   4  -7  -3   14.04    2.47
   4  -7  -3   21.72    2.10
  -4  -7   3   18.73    1.94
   4   7  -3   24.14    2.45
   4   7  -3   21.06    2.19
  -4   7   3   18.39    1.97
   4   7  -3   24.27    2.14
  -4   7   3   23.02    2.16
   4   7  -3   22.26    2.36
   4   7  -3   27.96    2.75
  -3  -7   3    4.85    1.42
  -3  -7   3    4.87    0.91
   3  -7  -3    3.26    2.17
   3  -7  -3    6.64    1.50
   3  -7  -3    2.20    1.77
   3  -7  -3    6.88    1.62
   3  -7  -3    6.06    1.08
   3  -7  -3    5.00    0.93
   3   7  -3    2.92    1.52
   3   7  -3    5.96    0.79
   3   7  -3    4.73    0.88
   3   7  -3    4.10    1.19
  -3   7   3    4.33    0.93
  -2  -7   3    8.70    1.46
  -2  -7   3    8.56    1.17
  -2  -7   3    9.74    1.10
   2  -7  -3   10.42    1.87
   2  -7  -3    8.00    1.18
   2  -7  -3   11.19    1.77
   2  -7  -3    6.55    1.49
   2  -7  -3   12.25    1.41
  -2  -7   3   13.48    2.62
   2  -7  -3    9.80    1.42
  -2   7   3    9.98    1.22
   2   7  -3    9.11    1.15
   2   7  -3    5.39    1.72
   2   7  -3    5.54    1.14
   2   7  -3    8.01    1.05
   2   7  -3    5.99    1.40
   2   7  -3    9.48    1.43
  -2   7   3    8.31    1.13
  -1  -7   3   18.15    2.57
   1  -7  -3   21.17    2.24
   1  -7  -3   20.66    2.69
  -1  -7   3   20.49    4.00
   1  -7  -3   25.22    4.16
  -1  -7   3   26.40    2.74
  -1  -7   3   25.65    2.14
   1  -7  -3   22.13    2.53
  -1  -7   3   28.40    1.99
   1  -7  -3   27.80    2.19
   1  -7  -3   17.93    3.22
   1   7  -3   25.88    2.55
   1   7  -3   27.23    2.33
  -1   7   3   28.91    2.41
   1   7  -3   26.09    2.24
   1   7  -3   24.20    3.93
   1   7  -3   28.28    2.36
  -1   7   3   28.26    2.35
   1   7  -3   30.45    2.81
   0  -7   3   15.23    1.80
   0  -7   3   16.10    2.09
   0  -7  -3   13.60    1.80
   0  -7  -3   15.92    1.73
   0  -7  -3   15.49    2.31
   0   7   3   12.67    1.68
   0   7   3   13.24    1.50
   0   7  -3   11.91    1.53
   0   7  -3   10.39    1.32
   0   7  -3   13.09    1.46
   0   7  -3   13.07    1.30
   0   7  -3   13.86    1.53
   0   7  -3   17.70    3.47
  -1  -7  -3   24.90    2.54
  -1  -7  -3   26.70    2.12
   1  -7   3   24.76    3.15
   1  -7   3   21.93    2.78
   1  -7   3   22.85    2.15
  -1  -7  -3   20.00    2.27
   1   7   3   21.22    2.14
  -1   7  -3   19.41    2.32
   1   7   3   23.94    2.18
  -1   7  -3   25.47    2.22
  -1   7  -3   23.61    3.87
  -2  -7  -3   11.85    1.45
   2  -7   3    9.77    1.71
   2  -7   3    9.17    1.78
  -2  -7  -3   13.02    1.19
  -2  -7  -3   12.07    2.17
   2  -7   3   10.65    2.49
  -2  -7  -3   10.65    2.71
   2  -7   3    9.42    1.62
  -2  -7  -3    9.53    1.29
  -2  -7  -3   10.61    1.71
  -2  -7  -3   11.25    1.64
   2   7   3    9.65    1.11
  -2   7  -3   11.19    3.06
  -2   7  -3    7.81    1.27
  -2   7  -3   11.52    1.17
   2   7   3   12.10    1.40
   2   7   3   10.71    1.65
  -2   7  -3   14.25    2.07
   2   7   3   11.41    1.66
  -3  -7  -3    5.73    0.93
  -3  -7  -3    5.43    2.26
   3  -7   3    6.13    1.80
  -3  -7  -3    1.63    1.98
  -3  -7  -3    5.13    1.49
  -3  -7  -3    7.95    1.06
  -3  -7  -3    6.36    1.53
   3  -7   3    7.99    1.90
   3  -7   3    8.87    1.53
  -3  -7  -3    5.38    1.10
  -3  -7  -3    4.29    2.56
   3  -7   3    6.23    0.93
  -3   7  -3    7.02    1.05
  -3   7  -3    6.49    1.14
   3   7   3    7.70    1.46
  -3   7  -3    2.46    5.21
   3   7   3    6.76    0.90
   3   7   3    6.66    1.08
   4  -7   3   19.72    2.38
   4  -7   3   13.87    2.30
  -4  -7  -3   18.30    1.77
  -4  -7  -3   15.39    2.55
   4  -7   3   16.65    3.21
  -4  -7  -3   14.47    2.47
  -4  -7  -3   18.18    2.04
   4   7   3   11.17    1.65
  -5  -7  -3    0.00    0.73
   5  -7   3    2.27    1.83
  -5  -7  -3    0.26    0.80
  -5  -7  -3   -0.61    2.04
   5  -7   3    1.61    1.32
   5  -7   3    0.73    1.05
  -5  -7  -3    0.96    0.68
   5  -7   3   -0.10    1.34
  -5  -7  -3   -0.67    3.06
   5   7   3    0.58    0.57
   5   7   3    0.31    0.76
   5   7   3    0.74    0.83
   5   7   3    1.43    2.64
  -5   7  -3    1.30    0.84
  -5   7  -3   -0.50    2.63
  -5   7  -3    0.63    1.08
   6  -7   3    5.96    2.31
  -6  -7  -3    5.18    0.92
  -6  -7  -3    6.25    1.18
   6  -7   3    5.51    1.24
  -6  -7  -3    6.73    0.95
  -6   7  -3    2.26    0.59
   6   7   3    3.21    1.02
   6   7   3   -1.14    1.89
   6   7   3    4.15    0.78
   7  -7   3    0.83    1.17
   7  -7   3    1.18    1.25
  -7  -7  -3    0.26    0.57
  -7  -7  -3    1.64    0.76
   7   7   3   -0.86    0.81
   7   7   3    1.04    0.64
   6  -8  -3    9.79    1.50
   6  -8  -3    9.77    1.53
   6  -8  -3    7.00    1.01
   6   8  -3   11.45    1.50
   5  -8  -3    3.65    0.92
   5  -8  -3    4.66    1.30
   5  -8  -3    4.50    0.93
  -5  -8   3    4.35    0.92
  -5  -8   3    4.78    0.92
   5  -8  -3    4.03    1.23
   5  -8  -3    4.57    1.66
   5   8  -3    4.01    0.79
   5   8  -3    1.91    1.80
   5   8  -3    5.23    1.13
   4  -8  -3   16.08    2.55
   4  -8  -3   17.01    1.79
  -4  -8   3   16.35    1.55
  -4  -8   3    6.18    4.80
   4  -8  -3   14.94    1.64
   4  -8  -3   11.33    1.97
   4  -8  -3   10.79    1.96
  -4  -8   3   11.69    1.55
  -4  -8   3   11.70    2.69
  -4   8   3   16.23    1.87
   4   8  -3   18.92    2.07
   4   8  -3   16.63    2.31
   4   8  -3   13.60    1.77
  -4   8   3   16.62    1.67
   4   8  -3   15.40    1.63
   4   8  -3   13.56    2.03
   3  -8  -3    1.73    2.36
  -3  -8   3    2.92    2.20
  -3  -8   3    3.76    0.89
  -3  -8   3    1.84    2.63
   3  -8  -3    3.35    2.36
  -3  -8   3    3.37    2.04
   3  -8  -3    4.96    1.00
   3  -8  -3    4.02    1.25
   3  -8  -3    3.03    1.29
   3  -8  -3    4.01    0.99
  -3   8   3    4.85    0.90
   3   8  -3    5.36    1.22
   3   8  -3    6.79    2.10
  -3   8   3    5.17    0.86
  -2  -8   3    8.23    1.66
   2  -8  -3   11.36    1.53
  -2  -8   3    8.47    1.35
   2  -8  -3   12.27    1.40
  -2  -8   3    5.51    3.34
  -2  -8   3   11.41    1.20
   2  -8  -3    5.52    2.18
   2  -8  -3    8.56    1.68
  -2  -8   3    8.48    1.66
   2  -8  -3   11.60    2.03
   2  -8  -3    7.97    1.12
   2   8  -3    8.30    1.08
  -2   8   3    8.20    1.23
   2   8  -3   10.51    1.31
   2   8  -3    9.76    1.29
  -2   8   3    9.13    1.38
  -2   8   3    8.16    1.96
   2   8  -3    9.58    1.87
   2   8  -3    4.82    3.26
  -1  -8   3    5.77    2.30
  -1  -8   3    8.91    1.26
   1  -8  -3    8.48    1.89
   1  -8  -3    8.99    1.41
   1  -8  -3    8.46    1.57
  -1  -8   3    8.91    1.45
   1  -8  -3    7.66    1.11
   1   8  -3    5.70    2.16
  -1   8   3    9.20    1.32
  -1   8   3    8.09    1.20
  -1   8   3    8.89    1.37
   1   8  -3    9.29    1.05
   1   8  -3   10.66    1.45
   1   8  -3    9.52    1.24
   1   8  -3    8.03    1.12
   1   8  -3    5.22    2.03
   0  -8  -3    0.15    0.75
   0  -8  -3    1.10    0.85
   0  -8  -3    2.46    0.85
   0  -8   3    0.39    0.72
   0  -8   3    0.24    2.70
   0  -8  -3    2.87    1.22
   0  -8   3    1.26    0.96
   0   8   3    1.19    0.84
   0   8  -3    0.65    0.76
   0   8   3    1.41    0.83
   0   8  -3    0.90    0.99
   0   8  -3    0.84    2.17
   0   8   3    1.92    0.71
   0   8  -3    2.11    0.89
   0   8  -3    0.82    0.50
   0   8  -3    0.61    0.92
   0   8  -3    2.17    2.63
  -1  -8  -3    6.27    1.08
   1  -8   3    9.07    1.59
  -1  -8  -3    7.75    1.26
   1  -8   3    7.24    1.18
   1  -8   3    7.27    1.11
  -1   8  -3    2.17    3.13
  -1   8  -3    3.39    3.16
  -1   8  -3    7.12    0.99
  -1   8  -3    8.47    1.10
   1   8   3    6.81    1.03
  -1   8  -3    9.01    1.26
   1   8   3    6.57    1.23
  -2  -8  -3    8.37    1.27
   2  -8   3    5.76    1.46
  -2  -8  -3   -1.02    6.18
   2  -8   3    5.68    1.12
   2  -8   3    8.22    1.56
   2  -8   3    6.20    1.85
  -2  -8  -3    7.17    1.65
  -2   8  -3    9.16    1.12
  -2   8  -3   11.82    1.47
  -2   8  -3   11.64    1.36
   2   8   3    7.09    1.09
  -2   8  -3    4.39    3.10
  -2   8  -3    4.18    5.58
   2   8   3    7.60    1.26
   2   8   3    5.74    2.23
   2   8   3    8.29    1.09
   3  -8   3    4.92    1.59
  -3  -8  -3    1.28    2.74
   3  -8   3    4.86    1.40
  -3  -8  -3    4.13    2.44
  -3  -8  -3    3.03    0.86
  -3  -8  -3   -2.69    3.39
   3  -8   3    3.22    1.63
   3  -8   3    3.14    1.25
  -3  -8  -3    4.35    1.72
  -3   8  -3    4.78    1.47
   3   8   3    4.75    1.17
  -3   8  -3    0.68    2.54
  -3   8  -3    5.65    0.83
   4  -8   3   16.82    2.88
   4  -8   3   13.41    2.24
  -4  -8  -3   13.54    1.60
  -4  -8  -3   14.64    1.84
   4  -8   3   16.20    2.55
   4  -8   3   10.74    1.81
   4   8   3   13.48    1.88
   4   8   3   14.67    1.63
  -4   8  -3   12.48    1.82
   4   8   3   10.40    1.47
   5  -8   3    5.71    1.19
  -5  -8  -3    3.90    1.01
   5  -8   3    4.43    1.37
   5  -8   3    4.83    1.22
   5  -8   3    8.03    2.44
  -5  -8  -3    3.01    0.89
   5   8   3    4.98    1.00
   5   8   3    6.21    1.19
  -6  -8  -3   10.56    1.83
  -6  -8  -3   15.07    2.18
   6   8   3    6.23    1.24
   6  -9  -3    1.41    1.04
   6  -9  -3    0.05    0.90
   6   9  -3    1.44    0.68
   6   9  -3    0.40    0.51
   5  -9  -3    4.27    1.31
  -5  -9   3    5.21    1.89
   5  -9  -3    3.08    1.18
  -5  -9   3    3.62    0.87
   5  -9  -3    3.85    1.14
   5   9  -3    4.36    0.75
   4  -9  -3    7.71    1.86
  -4  -9   3   10.78    1.48
   4  -9  -3    8.00    1.50
  -4  -9   3    9.94    1.56
  -4  -9   3    1.03    4.87
   4  -9  -3   10.16    1.71
  -4   9   3   16.20    1.97
   4   9  -3   13.55    1.89
  -3  -9   3    7.84    6.90
   3  -9  -3   19.74    2.78
  -3  -9   3   19.78    2.07
   3  -9  -3   21.20    2.47
   3  -9  -3   22.38    2.94
  -3  -9   3   18.29    3.18
  -3  -9   3   21.44    2.04
   3  -9  -3   23.75    2.09
  -3   9   3   21.35    2.05
  -3   9   3   21.40    2.31
   3   9  -3   20.39    2.68
   3   9  -3   21.10    2.10
   3   9  -3   21.84    1.95
   3   9  -3   20.67    2.50
   2  -9  -3    8.59    1.62
  -2  -9   3    8.70    1.51
  -2  -9   3    5.71    2.27
   2  -9  -3    7.93    2.23
   2  -9  -3    8.44    1.13
   2  -9  -3    8.40    1.21
   2   9  -3    8.26    1.01
  -2   9   3    8.16    1.29
   2   9  -3    5.64    2.21
   2   9  -3    9.30    1.13
  -2   9   3    6.35    1.47
  -1  -9   3   -1.34    2.68
  -1  -9   3    3.72    3.73
   1  -9  -3    3.58    0.91
   1  -9  -3    4.39    1.18
   1  -9  -3    3.22    1.29
   1  -9  -3    2.54    0.94
  -1  -9   3    1.56    1.12
  -1  -9   3    2.17    0.87
   1   9  -3    2.05    1.53
   1   9  -3    0.70    1.66
  -1   9   3    3.14    0.86
   1   9  -3    2.51    0.79
  -1   9   3    3.38    1.08
   1   9  -3   -2.38    3.10
   1   9  -3    2.05    0.72
   1   9  -3    3.11    0.84
   0  -9  -3   43.61    3.55
   0  -9   3   38.69    3.43
   0  -9   3   42.16    3.59
   0  -9   3   38.59    4.57
   0  -9  -3   43.55    4.38
   0  -9  -3   31.71    4.97
   0  -9  -3   42.91    3.50
   0  -9  -3   33.44    5.91
   0   9  -3   42.17    3.70
   0   9  -3   41.31    3.55
   0   9  -3   39.87    3.30
   0   9  -3   40.21    5.63
   0   9  -3   38.75    3.39
   0   9   3   44.86    3.66
  -1  -9  -3    4.99    1.57
  -1  -9  -3    1.82    1.02
  -1  -9  -3   -0.84    2.04
   1  -9   3    2.27    0.90
   1  -9   3   -0.35    1.42
  -1  -9  -3    1.52    0.84
  -1  -9  -3    2.58    1.80
  -1   9  -3    2.83    4.16
   1   9   3    0.25    1.16
  -1   9  -3    2.99    1.50
  -1   9  -3    1.17    2.44
   1   9   3    1.19    0.96
  -1   9  -3    1.39    0.61
   1   9   3    2.03    0.71
   1   9   3    1.73    0.82
  -1   9  -3    2.61    1.18
   2  -9   3    8.13    1.98
  -2  -9  -3    9.74    1.95
   2  -9   3    6.91    1.58
  -2  -9  -3    8.97    1.77
  -2  -9  -3   10.48    2.32
  -2   9  -3    3.96    2.91
  -2   9  -3    7.58    1.34
   2   9   3    4.77    0.96
   2   9   3    6.59    1.07
   2   9   3    7.59    1.30
   2   9   3    9.48    2.18
  -2   9  -3    9.89    1.48
   3  -9   3   22.83    3.66
  -3  -9  -3   23.71    3.14
   3  -9   3   21.62    2.75
   3  -9   3   25.39    2.55
   3  -9   3   21.77    3.11
  -3  -9  -3   22.13    2.40
  -3   9  -3   17.01    3.87
  -3   9  -3   19.26    2.60
  -3   9  -3   23.31    1.96
   3   9   3   21.58    2.17
  -3   9  -3   20.27    2.29
   3   9   3   19.41    1.95
   3   9   3   22.36    2.78
   4  -9   3    9.72    1.60
   4  -9   3   11.60    2.70
  -4  -9  -3   11.39    8.05
   4  -9   3    8.49    1.72
  -4  -9  -3   11.59    1.78
  -4  -9  -3    9.25    2.36
   4   9   3    9.09    1.51
  -4   9  -3    7.91    1.19
  -5  -9  -3    5.08    1.18
  -5  -9  -3    5.93    0.91
   5  -9   3    3.94    1.10
   5  -9   3    3.93    1.24
  -5   9  -3    5.44    0.84
   5   9   3    5.64    1.01
   5   9   3    3.48    1.00
   6  -9   3    1.83    1.10
  -6  -9  -3    1.65    0.76
   6  -9   3    0.64    0.91
   6   9   3    0.63    0.62
   5 -10  -3    2.18    1.27
   5 -10  -3    3.69    1.14
  -5 -10   3    4.61    0.85
   5 -10  -3    0.22    1.32
   5  10  -3    4.14    0.98
  -4 -10   3    1.43    0.84
   4 -10  -3    0.57    1.05
   4 -10  -3    0.03    0.80
   4 -10  -3    1.32    1.20
   4 -10  -3    1.99    1.18
   4  10  -3    0.83    0.81
   4  10  -3    1.19    1.01
   3 -10  -3    0.76    1.25
   3 -10  -3    0.48    1.17
   3 -10  -3   -0.32    0.82
   3 -10  -3   -0.07    1.22
  -3 -10   3    0.42    0.71
   3  10  -3    0.29    0.72
  -3  10   3   -0.12    1.30
   3  10  -3    0.14    1.04
   2 -10  -3    6.43    1.47
   2 -10  -3    6.26    1.55
   2 -10  -3    7.04    1.40
  -2 -10   3    4.48    1.03
  -2 -10   3    8.52    1.49
   2 -10  -3    5.16    1.03
   2 -10  -3    7.66    0.99
  -2  10   3    5.49    1.41
   2  10  -3   10.35    2.02
  -2  10   3    6.86    1.35
   2  10  -3    7.23    0.92
   2  10  -3    4.60    0.95
   1 -10  -3   24.30    2.98
   1 -10  -3   23.93    2.43
  -1 -10   3   24.06    2.84
   1 -10  -3   23.48    2.97
  -1 -10   3   24.58    2.62
   1  10  -3   17.73    2.93
  -1  10   3   21.37    2.22
   1  10  -3   17.39    2.21
   1  10  -3   22.65    1.88
   0 -10   3    6.16    1.80
   0 -10  -3    6.59    1.63
   0 -10  -3    8.33    2.43
   0 -10   3    9.27    1.89
   0 -10   3    7.53    1.38
   0 -10  -3    8.12    1.31
   0 -10  -3    7.58    1.28
   0 -10   3    7.33    1.72
   0  10  -3    6.90    1.80
   0  10   3    4.93    1.39
   0  10  -3   10.52    1.73
   0  10   3    7.61    1.15
   0  10  -3    7.65    1.05
   0  10   3    9.46    1.89
   0  10   3    8.09    1.60
   1 -10   3   22.52    2.93
   1 -10   3   22.22    2.40
   1 -10   3   23.85    3.82
  -1 -10  -3   20.75    2.46
   1  10   3   22.72    3.00
  -1  10  -3   20.92    2.30
  -1  10  -3   20.18    2.62
   1  10   3   20.30    2.96
   1  10   3   24.58    2.11
  -1  10  -3   19.06    5.07
  -1  10  -3   20.89    2.11
   2 -10   3    6.02    1.53
   2 -10   3    9.68    2.32
   2 -10   3    9.67    1.84
  -2 -10  -3    6.06    1.20
  -2 -10  -3    7.50    1.42
   2 -10   3    8.34    1.19
   2  10   3    7.97    1.39
  -2  10  -3    7.30    1.19
   2  10   3    8.44    1.24
   2  10   3   11.60    2.28
  -2  10  -3    7.78    1.10
   2  10   3    7.41    1.18
  -2  10  -3    8.41    4.33
  -2  10  -3    8.33    1.68
  -3 -10  -3   -1.66    2.84
  -3 -10  -3    0.12    1.07
   3 -10   3    0.33    1.41
   3 -10   3   -0.73    1.09
   3 -10   3   -0.56    1.06
   3  10   3   -1.89    1.96
  -3  10  -3   -0.43    1.38
   3  10   3   -0.07    0.79
  -3  10  -3    1.57    1.24
  -3  10  -3   -4.37    3.19
   4 -10   3    0.93    1.14
   4 -10   3    1.28    1.08
  -4 -10  -3    2.04    3.49
  -4 -10  -3   -0.32    1.41
   4  10   3    1.40    0.89
   4  10   3    1.08    1.03
  -4  10  -3    0.44    0.65
   5 -10   3    2.72    1.40
   5 -10   3    1.62    0.74
  -5 -10  -3    2.81    0.92
   5 -10   3    1.43    1.19
  -5  10  -3    4.31    0.79
   5  10   3    4.41    1.07
   5 -11  -3    2.27    0.96
   5 -11  -3    3.94    1.04
   5 -11  -3    2.78    1.94
   5  11  -3    2.38    0.60
   4 -11  -3    4.54    1.64
  -4 -11   3    6.19    2.30
   4 -11  -3    8.17    1.61
  -4 -11   3    7.53    1.23
   4  11  -3   10.20    1.42
   4  11  -3   10.76    1.63
   3 -11  -3    1.28    1.09
  -3 -11   3    3.68    1.55
   3 -11  -3    2.17    1.20
   3 -11  -3    1.67    1.14
  -3 -11   3    1.52    0.91
   3  11  -3    3.66    0.98
  -2 -11   3    6.27    1.70
   2 -11  -3    5.50    0.83
   2 -11  -3    3.88    1.89
  -2 -11   3    3.10    0.92
  -2  11   3    4.30    1.10
   2  11  -3    4.73    1.01
   1 -11  -3   -2.08    3.25
  -1 -11   3    7.85    2.24
   1 -11  -3    2.94    1.84
  -1  11   3    7.73    1.23
  -1  11   3    7.01    1.07
  -1  11   3    8.18    1.97
   1  11  -3    7.18    1.15
  -1  11   3    5.40    1.28
   1  11  -3    8.45    1.16
   0 -11  -3   16.15    2.15
   0 -11  -3   13.83    1.95
   0 -11   3   20.32    3.38
   0 -11   3   13.04    1.82
   0 -11  -3   12.20    2.18
   0 -11   3   16.32    3.03
   0 -11   3   17.22    2.15
   0 -11  -3   16.54    4.12
   0  11   3   13.64    1.88
   0  11   3   14.99    1.97
   0  11  -3   17.11    2.05
   0  11  -3   13.68    1.56
   0  11   3   13.08    3.10
   0  11  -3   19.36    3.50
   0  11   3   15.50    1.64
   0  11  -3   12.85    1.69
   1 -11   3    7.21    2.20
   1 -11   3    3.91    1.57
  -1 -11  -3    4.77    1.26
  -1  11  -3    4.27    0.84
  -1  11  -3    8.07    2.00
  -1  11  -3    5.15    1.18
   1  11   3    4.12    3.46
   1  11   3    4.47    1.11
   1  11   3    5.50    0.86
  -1  11  -3    3.65    2.89
   2 -11   3    5.12    1.12
  -2 -11  -3    5.91    2.28
   2 -11   3    6.40    1.30
  -2 -11  -3    4.29    1.21
   2 -11   3    6.70    2.35
   2 -11   3    3.71    1.97
  -2  11  -3    5.05    0.96
  -2  11  -3    4.98    3.78
   2  11   3    4.89    1.09
  -2  11  -3    3.73    0.84
   2  11   3    6.65    2.58
  -3 -11  -3    3.07    1.49
   3 -11   3    3.09    1.17
  -3 -11  -3    1.78    1.03
   3 -11   3    1.87    0.96
   3 -11   3    2.09    1.36
   3  11   3    2.46    0.73
  -3  11  -3    2.78    0.79
   3  11   3    4.62    1.84
   3  11   3    2.79    1.40
  -3  11  -3    1.59    1.00
   4 -11   3    3.42    0.95
   4 -11   3    3.78    1.20
  -4 -11  -3    6.13    1.12
  -4 -11  -3    6.19    1.89
   4 -11   3    5.12    1.21
  -4  11  -3    5.96    0.83
   5 -11   3    3.20    0.84
   5 -11   3    1.01    0.87
  -5 -11  -3    1.59    0.84
   5  11   3    2.41    0.85
   4 -12  -3    2.87    1.17
   4 -12  -3    0.70    0.85
   4 -12  -3    1.13    0.86
  -4 -12   3    2.61    1.79
  -4 -12   3    0.46    0.75
  -4  12   3    1.50    0.65
  -3 -12   3    0.47    0.72
   3 -12  -3    0.52    1.35
  -3 -12   3   -0.37    1.26
  -3  12   3    0.63    0.67
  -3  12   3   -0.63    1.03
  -3  12   3    3.75    0.96
   3  12  -3    2.01    0.97
   2 -12  -3    5.27    1.46
   2 -12  -3    5.60    1.24
  -2 -12   3    7.07    1.13
   2 -12  -3    3.40    1.31
  -2 -12   3    7.46    1.37
   2  12  -3    6.79    0.94
  -2  12   3    7.80    1.32
   2  12  -3    9.46    1.31
  -2  12   3   10.79    1.51
  -2  12   3    8.72    1.33
  -1 -12   3    4.39    1.20
   1 -12  -3    6.29    1.47
   1 -12  -3    2.48    1.80
  -1 -12   3    5.62    1.77
   1 -12  -3    5.52    1.30
  -1  12   3    4.74    1.68
   1  12  -3    5.20    0.81
   1  12  -3    6.05    0.88
  -1  12   3    5.73    0.95
   1  12  -3    6.35    1.29
   0 -12   3    4.21    2.12
   0 -12  -3    2.59    0.96
   0 -12   3    2.05    1.05
   0 -12   3    1.08    2.57
   0  12   3    1.25    0.73
   0  12  -3    2.12    0.72
  -1 -12  -3    6.91    1.31
  -1 -12  -3    6.66    1.29
   1 -12   3    6.10    1.75
   1 -12   3    4.94    1.26
  -1  12  -3    5.99    0.92
   1  12   3    7.19    1.11
   1  12   3    6.53    0.94
   2 -12   3    5.37    1.01
   2 -12   3    6.49    1.44
   2 -12   3    6.41    1.46
  -2 -12  -3    5.87    1.31
  -2 -12  -3    5.52    1.20
   2  12   3    7.94    3.05
  -2  12  -3    6.64    0.95
  -2  12  -3    6.45    0.98
   2  12   3    5.79    1.20
   3 -12   3    0.16    0.84
   3 -12   3    0.62    1.75
  -3 -12  -3    0.70    1.19
  -3  12  -3    2.54    0.67
   3  12   3    2.12    0.88
   3  12   3    3.49    1.76
  -4 -12  -3    1.79    1.11
  -4 -12  -3    2.27    1.46
   4 -12   3    0.39    0.82
   4 -12   3    1.41    0.96
  -4  12  -3    2.77    0.61
  -4  12  -3    2.86    1.74
   4  12   3    1.47    0.93
   4  12   3   -0.26    1.08
   3 -13  -3    0.90    0.91
  -3 -13   3    3.63    1.32
   3 -13  -3    1.44    1.19
  -3  13   3    1.09    0.58
  -3  13   3    1.65    0.83
   2 -13  -3    2.01    0.89
   2 -13  -3    1.95    1.22
  -2 -13   3    4.71    1.15
   2  13  -3    4.85    1.06
  -2  13   3    2.65    0.70
  -2  13   3    2.54    0.87
  -2  13   3    2.46    0.76
  -1 -13   3    5.73    1.55
   1 -13  -3    2.18    1.20
  -1  13   3    4.46    0.82
   1  13  -3    4.13    1.03
  -1  13   3    4.90    1.16
   0 -13  -3    1.18    1.00
   0 -13   3    0.27    0.90
   0 -13   3    1.08    0.87
   0 -13  -3    0.22    0.85
   0  13   3    1.10    0.59
   0  13  -3    0.31    0.55
   0  13  -3    1.62    0.60
   0  13   3    2.12    0.91
   0  13   3    0.27    0.66
  -1 -13  -3    4.08    1.06
   1 -13   3    1.55    1.16
  -1 -13  -3    2.77    0.99
   1 -13   3    5.73    1.90
   1 -13   3    2.34    0.67
  -1  13  -3    5.47    0.78
   1  13   3    3.86    0.84
   1  13   3    4.99    1.12
   1  13   3    4.19    0.71
  -2 -13  -3    2.62    1.07
   2 -13   3    2.05    1.03
  -2 -13  -3    0.98    0.96
   2 -13   3    2.84    1.06
   2 -13   3    6.01    1.46
   2  13   3    2.89    0.63
  -2  13  -3    3.36    0.71
  -2  13  -3    2.93    0.67
   2  13   3    4.29    1.02
  -3 -13  -3    1.42    1.07
   3 -13   3    1.05    1.12
  -3 -13  -3    1.31    0.90
   3 -13   3    0.56    0.72
  -3 -13  -3    1.38    1.53
   3  13   3    3.61    1.77
  -3  13  -3    1.62    0.55
  -3  13  -3   -0.37    0.73
  -1 -14   3    2.06    0.76
   1 -14  -3    1.64    0.79
  -1 -14   3    3.52    0.89
  -1  14   3    3.14    0.66
   1  14  -3    4.43    0.72
  -1  14   3    4.19    1.43
   0 -14  -3    4.05    1.02
   0 -14   3    2.49    1.06
   0 -14  -3    3.18    0.82
   0 -14   3    1.47    0.87
   0  14   3    5.07    1.09
   0  14   3    3.56    0.93
   0  14   3    3.49    0.65
   0  14  -3    4.02    0.66
  -1 -14  -3    2.58    0.79
   1 -14   3    2.00    0.88
  -1 -14  -3    2.32    1.08
   1  14   3    2.84    0.59
   1  14   3    2.76    1.06
  -1  14  -3    3.01    0.64
   7   0  -4    4.96    0.87
   7   0  -4    4.44    1.24
   7   0  -4    4.75    0.83
   7   0  -4    3.48    1.26
   7   0  -4    6.50    1.38
   6   0  -4    1.69    0.76
  -6   0   4   -1.26    2.14
  -6   0   4    3.57    0.87
   6   0  -4    1.56    1.38
   6   0  -4    1.70    0.79
   6   0  -4    3.14    0.96
   6   0  -4    1.56    1.56
   5   0  -4    0.88    0.71
  -5   0   4    0.26    0.58
  -5   0   4    0.23    0.56
   5   0  -4    0.13    1.31
  -5   0   4   -0.26    0.84
   5   0  -4   -0.36    0.76
   5   0  -4    1.35    0.84
   5   0  -4    0.07    2.03
   4   0  -4    7.23    1.35
  -4   0   4    7.02    1.10
   4   0  -4    5.30    0.87
  -4   0   4    5.75    0.79
   4   0  -4    5.93    1.11
   4   0  -4    6.33    1.44
   4   0  -4    4.48    1.21
   4   0  -4    5.44    0.92
  -4   0   4    7.56    1.06
  -3   0   4    0.80    0.52
  -3   0   4    1.56    0.49
   3   0  -4    1.36    0.67
  -3   0   4    0.81    0.45
  -3   0   4    0.21    0.77
   2   0  -4   30.29    2.48
  -2   0   4   28.71    3.62
  -2   0   4   25.28    2.36
  -2   0   4   26.37    2.23
  -2   0   4   27.31    2.27
   2   0  -4   30.25    3.68
   1   0  -4  141.71   10.04
   1   0  -4  126.96    9.00
   1   0  -4  102.83    9.25
  -1   0   4  125.50    9.01
   1   0  -4  105.69    9.92
   0   0  -4  204.94   15.29
   0   0  -4  226.75   15.88
   0   0   4  192.93   15.27
   0   0  -4  212.38   16.20
   0   0  -4  195.32   15.23
  -1   0  -4  105.31    7.93
   1   0   4  100.44    8.01
  -1   0  -4  108.93    8.86
  -2   0  -4   29.08    2.01
  -2   0  -4   24.83    2.55
  -2   0  -4   25.82    2.21
  -2   0  -4   19.29    3.03
  -2   0  -4   23.30    2.09
  -2   0  -4   23.77    1.98
   2   0   4   23.29    2.51
   3   0   4    1.23    0.91
  -3   0  -4    1.40    0.83
  -3   0  -4    2.52    1.44
  -3   0  -4    2.65    0.91
  -3   0  -4    1.27    0.45
  -3   0  -4    1.56    0.64
  -3   0  -4    1.47    0.49
  -4   0  -4    5.12    1.72
  -4   0  -4    3.00    0.73
   4   0   4    2.90    0.87
   4   0   4    2.37    1.22
  -4   0  -4    2.27    1.47
   4   0   4    3.20    1.53
   4   0   4    3.16    1.27
  -5   0  -4   -0.84    1.72
  -5   0  -4   -2.86    1.38
  -5   0  -4    1.66    0.62
  -5   0  -4   -0.30    0.53
   5   0   4    0.10    1.52
  -5   0  -4    0.64    0.77
  -5   0  -4    0.96    1.61
   5   0   4    0.16    0.79
  -6   0  -4    4.25    0.86
  -6   0  -4    3.22    0.74
   6   0   4    3.41    1.56
  -6   0  -4    3.64    1.83
  -6   0  -4    0.30    2.60
   6   0   4    1.64    2.05
   7   0   4    5.31    1.37
  -7   0  -4    7.07    0.97
   7   0   4    5.64    1.35
   7   0   4    3.84    1.22
  -7   0  -4    6.57    2.11
  -7   0  -4    7.80    1.13
  -7  -1   4    0.94    0.72
   7  -1  -4    2.19    1.11
   7  -1  -4    1.51    1.27
  -7  -1   4    2.31    0.70
   7  -1  -4    0.90    1.09
   7  -1  -4    1.31    0.64
   7  -1  -4    1.01    0.65
   7   1  -4    1.83    0.99
  -7   1   4   -0.80    0.94
   7   1  -4    1.58    0.65
   7   1  -4    1.03    0.55
   7   1  -4    2.00    1.11
  -7   1   4    0.86    0.71
   7   1  -4    2.39    1.05
   6  -1  -4    1.62    1.18
   6  -1  -4    5.67    2.03
  -6  -1   4    3.54    0.84
  -6  -1   4    3.55    0.78
  -6  -1   4    1.71    2.36
   6  -1  -4    1.65    1.73
  -6   1   4    3.10    1.52
   6   1  -4    2.78    0.95
  -6   1   4    2.81    0.81
   6   1  -4    1.04    0.62
  -6   1   4   -0.84    2.14
  -6   1   4    4.30    0.84
   5  -1  -4   10.71    1.79
  -5  -1   4    5.77    2.09
   5  -1  -4    8.21    1.11
  -5  -1   4    7.67    1.18
  -5  -1   4    8.42    1.44
   5  -1  -4    7.86    1.52
   5  -1  -4    7.28    1.66
   5  -1  -4    9.91    2.54
   5  -1  -4    9.06    1.36
  -5  -1   4    8.72    1.17
   5   1  -4    9.40    1.32
  -5   1   4    8.94    1.17
   5   1  -4    9.52    1.28
  -5   1   4    7.10    1.05
   5   1  -4   10.67    1.83
   5   1  -4    9.80    1.58
   5   1  -4    8.69    1.75
  -5   1   4    9.62    1.31
  -4  -1   4    6.14    1.01
   4  -1  -4    8.43    1.26
   4  -1  -4    7.88    1.14
   4  -1  -4    8.78    1.38
   4  -1  -4    7.26    1.09
  -4  -1   4    7.66    1.09
   4  -1  -4    9.34    1.44
   4  -1  -4    7.71    1.46
   4  -1  -4    8.38    1.39
   4   1  -4    8.85    1.40
  -4   1   4    7.83    1.07
   4   1  -4    7.46    1.15
   4   1  -4    8.42    1.56
  -4   1   4    7.39    1.00
   4   1  -4    7.61    1.38
  -4   1   4    7.87    0.94
   4   1  -4    8.98    1.11
   3  -1  -4    3.97    0.75
  -3  -1   4    1.08    0.86
  -3  -1   4    2.73    0.56
   3  -1  -4    1.26    0.75
  -3  -1   4    2.07    0.57
   3  -1  -4    2.11    1.25
  -3   1   4    1.87    0.48
  -3   1   4    2.14    0.59
   3   1  -4    1.16    1.38
   3   1  -4    2.23    0.79
  -3   1   4    1.04    0.95
  -2  -1   4   25.85    3.40
  -2  -1   4   24.40    2.10
  -2  -1   4   24.75    2.15
   2  -1  -4   23.77    3.37
  -2  -1   4   30.44    2.17
   2  -1  -4   24.82    2.27
   2   1  -4   25.75    2.31
  -2   1   4   23.85    2.04
   1  -1  -4   59.31    4.40
  -1  -1   4   58.61    5.37
  -1  -1   4   50.28    4.63
   1  -1  -4   60.80    5.52
   1   1  -4   53.66    5.17
   1   1  -4   58.47    4.39
   1   1  -4   59.16    5.55
   0  -1   4   16.85    1.72
   0  -1   4   18.18    2.45
   0  -1   4   18.06    1.53
   0  -1  -4   16.15    2.88
   0  -1   4   17.05    1.49
   0  -1  -4   18.47    2.59
   0  -1  -4   18.17    1.60
   0  -1  -4   14.22    1.55
   0  -1  -4   16.10    1.48
   0   1   4   18.13    1.49
   0   1  -4   17.00    1.56
   0   1   4   17.02    1.49
   0   1  -4   16.23    1.44
   0   1  -4   16.33    2.77
   0   1  -4   17.24    2.86
  -1  -1  -4   66.51    5.22
   1  -1   4   63.84    5.38
  -1  -1  -4   72.85    5.73
  -1  -1  -4   70.76    6.21
  -1  -1  -4   64.86    5.20
   1  -1   4   70.22    5.50
   1   1   4   69.25    4.92
  -1   1  -4   59.83    4.92
  -1   1  -4   66.87    5.99
   1   1   4   62.23    4.89
  -2  -1  -4   22.32    1.89
  -2  -1  -4   23.39    1.77
  -2  -1  -4   20.06    1.75
   2  -1   4   17.24    2.35
   2  -1   4   17.61    1.96
  -2  -1  -4   26.03    2.06
  -2  -1  -4   19.64    2.94
  -2   1  -4   23.23    1.78
  -2   1  -4   22.27    3.04
  -2   1  -4   21.09    1.74
   2   1   4   17.74    1.93
  -2   1  -4   22.04    1.86
   3  -1   4    1.03    0.75
  -3  -1  -4    1.87    0.55
  -3  -1  -4    1.35    0.61
  -3  -1  -4    2.97    0.93
   3  -1   4    3.10    1.90
  -3  -1  -4    2.65    0.55
  -3  -1  -4    4.09    0.75
  -3   1  -4    2.79    0.77
  -3   1  -4    2.37    0.51
  -3   1  -4    1.49    0.61
   3   1   4    3.07    1.52
   3   1   4    2.61    0.82
  -3   1  -4    2.08    0.93
  -3   1  -4    0.40    1.31
   4  -1   4    6.32    1.53
  -4  -1  -4    4.93    0.95
   4  -1   4    4.31    0.92
  -4  -1  -4    7.05    1.28
  -4  -1  -4    7.89    1.21
  -4  -1  -4    5.24    1.38
  -4   1  -4    6.16    0.97
  -4   1  -4    4.65    1.70
   4   1   4    5.83    1.59
   4   1   4    5.95    1.50
  -4   1  -4    5.31    0.96
  -4   1  -4    6.12    1.13
  -4   1  -4    6.17    1.34
   4   1   4    3.83    0.96
  -4   1  -4    6.95    1.08
   4   1   4    6.41    1.53
  -5  -1  -4    6.39    0.92
  -5  -1  -4    6.25    2.54
   5  -1   4    5.95    1.36
   5  -1   4    6.07    2.13
   5  -1   4    4.59    0.72
   5  -1   4    5.22    1.60
  -5  -1  -4    5.03    1.37
   5  -1   4    4.99    1.81
  -5  -1  -4    5.05    2.07
  -5  -1  -4    6.70    1.04
  -5   1  -4    3.51    2.03
  -5   1  -4    6.61    1.02
   5   1   4    6.63    1.61
   5   1   4    5.13    1.25
  -5   1  -4   10.90    2.78
  -5   1  -4    5.69    1.22
   5   1   4    5.15    1.40
  -5   1  -4    7.84    1.01
  -6  -1  -4    2.18    0.74
  -6  -1  -4    3.59    1.22
  -6  -1  -4    1.44    0.63
   6  -1   4    2.18    1.77
  -6   1  -4   -0.91    2.59
  -6   1  -4    2.52    0.74
  -6   1  -4    2.19    0.62
   7  -1   4   -0.04    1.01
   7  -1   4    0.62    0.85
   7  -1   4    1.09    0.90
   7  -1   4    0.64    1.10
  -7  -1  -4    0.93    0.53
  -7  -1  -4    1.50    0.68
  -7  -1  -4    1.25    1.32
   7   1   4    0.41    1.02
   7   1   4    0.64    0.83
  -7   1  -4    1.68    0.51
   7   1   4    0.95    1.07
   7   1   4    1.26    1.02
  -7   1  -4    1.98    0.64
  -7  -2   4    8.81    1.37
   7  -2  -4   11.69    1.71
   7  -2  -4   12.30    1.41
   7  -2  -4   11.45    1.27
   7  -2  -4   10.46    1.82
  -7  -2   4   12.16    1.45
   7   2  -4   12.38    1.77
   7   2  -4   12.67    1.88
   7   2  -4    8.74    1.25
   7   2  -4   10.78    1.41
   6  -2  -4    3.28    0.88
   6  -2  -4    3.36    1.26
  -6  -2   4    0.65    2.45
   6  -2  -4    2.03    1.98
   6  -2  -4    3.59    0.88
  -6  -2   4    6.79    1.49
   6  -2  -4    2.33    1.19
  -6  -2   4    4.12    0.85
  -6  -2   4    5.30    0.82
   6  -2  -4    5.75    1.27
   6   2  -4    1.11    1.46
   6   2  -4    2.82    0.66
   6   2  -4    0.93    1.00
   6   2  -4    5.76    1.39
   6   2  -4    3.06    1.26
  -6   2   4    5.72    1.07
   6   2  -4    3.82    0.88
  -6   2   4    3.18    0.77
  -6   2   4    3.58    1.31
  -5  -2   4   10.40    1.60
  -5  -2   4   11.10    1.29
   5  -2  -4    9.88    1.42
  -5  -2   4   13.08    1.72
   5  -2  -4   10.60    1.38
   5  -2  -4    9.14    1.55
   5  -2  -4   11.72    1.90
   5  -2  -4   10.74    1.93
   5   2  -4    9.60    1.81
   5   2  -4   10.16    1.73
  -5   2   4   10.46    1.38
   5   2  -4   10.65    1.64
  -5   2   4    8.81    1.25
   5   2  -4   12.17    1.84
   5   2  -4   10.19    1.25
   5   2  -4   10.23    1.33
  -4  -2   4    0.79    1.25
   4  -2  -4    3.31    0.97
   4  -2  -4    1.61    0.99
  -4  -2   4    2.19    0.62
   4  -2  -4    2.56    0.68
  -4  -2   4    2.85    0.61
   4  -2  -4    2.46    0.67
   4  -2  -4    3.92    1.05
   4  -2  -4   -0.25    1.68
   4  -2  -4    2.03    0.67
   4  -2  -4    3.55    1.26
   4  -2  -4    2.71    0.74
  -4  -2   4    1.98    0.79
  -4   2   4    0.64    1.40
  -4   2   4    1.58    0.55
   4   2  -4    2.76    1.02
   4   2  -4    1.83    0.95
   4   2  -4    1.88    0.91
  -4   2   4    2.85    0.75
   4   2  -4    2.55    0.69
   4   2  -4    2.00    0.58
  -3  -2   4   15.28    1.53
   3  -2  -4   14.95    1.52
   3  -2  -4   16.29    1.52
  -3  -2   4   13.29    2.96
   3  -2  -4   16.83    1.92
   3  -2  -4   13.14    1.69
   3  -2  -4   16.31    1.61
   3  -2  -4   16.79    1.61
  -3  -2   4   14.35    1.41
  -3  -2   4   15.51    1.46
   3   2  -4   16.68    1.78
  -3   2   4   14.99    1.38
   3   2  -4   12.15    1.66
  -3   2   4   15.18    1.45
   3   2  -4   16.72    1.86
  -2  -2   4   21.79    1.92
  -2  -2   4   24.74    3.39
  -2  -2   4   25.58    2.00
   2  -2  -4   19.10    2.26
   2  -2  -4   25.32    2.08
  -2   2   4   24.14    1.97
   2   2  -4   24.59    2.24
  -2   2   4   23.42    1.99
  -1  -2   4   56.15    5.22
   1  -2  -4   52.13    5.40
  -1  -2   4   58.53    4.34
  -1  -2   4   52.26    4.19
   1  -2  -4   52.64    4.23
   1   2  -4   57.34    5.41
   1   2  -4   54.32    4.33
   1   2  -4   58.27    5.51
  -1   2   4   54.64    4.27
   0  -2  -4   43.97    5.00
   0  -2  -4   47.01    3.75
   0  -2   4   48.57    3.81
   0  -2  -4   59.46    4.27
   0  -2   4   50.51    4.38
   0  -2   4   44.33    3.74
   0  -2   4   51.12    4.52
   0   2  -4   48.54    5.06
   0   2  -4   47.66    3.77
   0   2  -4   48.79    4.66
  -1  -2  -4   58.59    5.45
  -1  -2  -4   46.72    4.27
  -1  -2  -4   59.61    4.38
  -1  -2  -4   59.30    5.18
   1  -2   4   57.25    4.65
  -1  -2  -4   58.70    4.40
   1   2   4   52.88    4.31
   1   2   4   60.02    4.19
  -1   2  -4   50.80    4.17
  -1   2  -4   56.79    5.35
   1   2   4   55.25    4.25
  -2  -2  -4   16.04    3.05
  -2  -2  -4   23.52    1.86
  -2  -2  -4   25.98    1.92
   2  -2   4   19.89    2.01
   2  -2   4   19.73    2.29
  -2  -2  -4   23.23    3.15
  -2  -2  -4   21.18    2.17
  -2  -2  -4   25.94    2.19
  -2  -2  -4   23.77    2.02
   2   2   4   25.03    2.25
  -2   2  -4   23.09    1.91
  -2   2  -4   23.08    3.35
  -2   2  -4   21.63    1.97
   2   2   4   21.83    2.11
  -3  -2  -4   15.41    1.42
  -3  -2  -4   13.59    2.81
  -3  -2  -4   16.01    1.74
   3  -2   4   14.69    2.22
  -3  -2  -4   18.06    1.77
   3  -2   4   13.45    1.64
  -3  -2  -4   14.25    1.59
  -3  -2  -4   15.27    1.37
   3  -2   4   14.82    1.90
   3  -2   4   11.75    1.86
   3  -2   4   13.80    2.03
  -3   2  -4   12.43    1.41
  -3   2  -4   12.82    2.72
   3   2   4   15.23    1.79
  -3   2  -4   15.44    1.36
   3   2   4   13.88    1.95
  -3   2  -4   15.74    1.33
  -4  -2  -4    3.25    1.17
  -4  -2  -4    2.65    0.63
  -4  -2  -4    0.96    1.86
  -4  -2  -4    2.77    0.85
   4  -2   4    2.03    0.74
   4  -2   4    2.23    1.35
  -4  -2  -4    3.24    0.98
  -4  -2  -4    3.34    0.69
   4  -2   4    3.51    1.52
   4  -2   4    2.20    1.12
   4   2   4    2.56    0.84
  -4   2  -4    0.07    1.62
  -4   2  -4    2.54    0.64
  -4   2  -4    3.13    1.09
  -4   2  -4    2.20    0.77
   4   2   4    4.45    1.44
   4   2   4    0.85    1.31
  -5  -2  -4    4.54    1.72
   5  -2   4    5.49    1.36
  -5  -2  -4    5.77    1.41
  -5  -2  -4    8.29    1.06
   5  -2   4    4.96    1.45
   5  -2   4    7.56    1.52
  -5  -2  -4    3.23    2.21
   5  -2   4    6.56    1.53
   5   2   4    5.04    1.41
   5   2   4    4.21    1.15
   5   2   4    4.84    0.95
  -5   2  -4    5.71    1.79
   5   2   4    6.05    1.56
   5   2   4    6.39    1.55
  -5   2  -4    6.11    1.38
  -6  -2  -4    4.55    1.44
   6  -2   4    5.20    1.71
  -6  -2  -4    3.24    0.80
   6  -2   4    7.08    1.54
  -6  -2  -4    4.11    0.83
   6  -2   4    5.02    1.31
  -6  -2  -4    5.77    2.69
   6  -2   4    4.82    1.46
  -6   2  -4    4.31    0.81
  -6   2  -4    3.54    0.72
  -6   2  -4    2.75    1.22
   6   2   4    3.37    1.12
   6   2   4    2.73    0.62
   6   2   4    1.94    1.14
   6   2   4    4.03    1.28
   6   2   4    3.76    1.42
   7  -2   4    5.02    1.04
   7  -2   4    6.16    1.36
   7  -2   4    5.86    1.29
   7  -2   4    9.85    2.23
   7   2   4    5.53    1.22
   7   2   4    2.97    0.76
   7   2   4    4.75    1.03
   7  -3  -4    0.82    0.95
   7  -3  -4    1.45    1.21
   7  -3  -4    2.01    1.06
  -7  -3   4    1.18    0.68
   7  -3  -4    0.98    1.13
  -7  -3   4    1.52    0.72
   7   3  -4    1.00    1.32
   7   3  -4    2.10    1.74
   7   3  -4    0.55    0.51
   7   3  -4    0.95    0.56
   7   3  -4    0.73    0.81
  -6  -3   4   12.36    3.49
   6  -3  -4   13.24    1.65
   6  -3  -4   18.31    2.71
  -6  -3   4    8.79    2.60
  -6  -3   4   14.95    1.60
   6  -3  -4   14.70    1.62
   6  -3  -4   16.77    2.23
  -6  -3   4   14.35    1.59
   6  -3  -4   11.48    2.04
   6   3  -4   15.36    1.86
  -6   3   4   15.32    1.57
   6   3  -4   15.42    2.07
   6   3  -4   14.50    1.71
   6   3  -4   14.93    2.59
   6   3  -4   13.78    1.56
  -5  -3   4   28.30    2.65
  -5  -3   4   24.46    2.30
   5  -3  -4   28.36    2.77
   5  -3  -4   26.67    2.40
   5  -3  -4   24.74    2.87
   5  -3  -4   27.24    2.82
  -5  -3   4   26.32    4.24
   5  -3  -4   28.11    2.36
   5  -3  -4   24.18    3.06
  -5  -3   4   25.76    2.28
   5  -3  -4   24.10    3.41
  -5   3   4   28.50    2.42
   5   3  -4   29.31    2.94
   5   3  -4   32.60    2.99
   5   3  -4   26.63    2.53
  -5   3   4   29.96    2.67
   5   3  -4   30.62    3.02
   5   3  -4   28.82    2.49
  -4  -3   4   18.93    1.96
   4  -3  -4   21.63    1.85
   4  -3  -4   16.11    1.92
   4  -3  -4   19.92    2.25
  -4  -3   4   19.32    1.71
   4  -3  -4   18.59    1.79
   4  -3  -4   15.74    2.05
  -4   3   4   18.84    1.67
   4   3  -4   12.86    1.93
   4   3  -4   19.81    1.67
   4   3  -4   18.61    1.62
  -4   3   4   14.85    1.82
   4   3  -4   15.06    2.01
   4   3  -4   15.70    2.03
   3  -3  -4   16.22    1.96
  -3  -3   4   15.03    1.49
   3  -3  -4    9.43    1.57
   3  -3  -4   10.47    1.41
  -3  -3   4   12.38    1.61
   3  -3  -4   14.45    1.48
  -3  -3   4   14.14    1.30
  -3   3   4    9.96    1.12
   3   3  -4    7.14    1.27
   3   3  -4    6.43    1.44
  -3   3   4    8.47    1.44
  -2  -3   4   47.19    3.96
  -2  -3   4   48.27    5.20
  -2  -3   4   49.24    3.88
   2  -3  -4   54.54    5.65
   2  -3  -4   56.41    3.98
  -2  -3   4   49.06    3.90
   2   3  -4   54.76    3.75
  -2   3   4   46.88    3.50
   2   3  -4   38.35    4.81
   2   3  -4   42.57    3.97
  -2   3   4   40.89    3.55
   2   3  -4   52.20    8.18
  -2   3   4   46.50    3.54
  -1  -3   4    2.58    0.62
   1  -3  -4    1.64    1.07
  -1  -3   4    2.35    0.55
   1  -3  -4    2.55    0.73
  -1  -3   4    2.25    0.50
  -1  -3   4    1.63    0.72
   1   3  -4    2.46    0.49
   1   3  -4    1.81    1.35
  -1   3   4    2.36    0.52
  -1   3   4    2.40    0.60
  -1   3   4    2.65    0.60
   1   3  -4    1.54    1.89
   1   3  -4    3.84    0.79
   0  -3   4   45.76    3.70
   0  -3   4   44.76    3.48
   0  -3  -4   46.46    3.57
   0  -3   4   39.15    3.37
   0  -3  -4   43.23    3.49
   0  -3  -4   41.60    4.58
   0  -3  -4   45.54    3.45
   0  -3   4   46.00    4.29
   0   3  -4   46.69    4.58
   0   3   4   46.11    3.45
   0   3  -4   45.88    3.45
   0   3   4   41.70    3.36
   0   3  -4   39.52    3.33
   0   3  -4   42.97    5.18
  -1  -3  -4    2.64    0.78
  -1  -3  -4    3.55    1.55
   1  -3   4    1.38    0.83
  -1  -3  -4    3.09    0.54
  -1  -3  -4    2.44    0.73
  -1  -3  -4    2.24    0.86
  -1   3  -4    2.52    1.44
  -1   3  -4    1.39    1.35
   1   3   4    3.07    0.70
   1   3   4    2.23    0.64
  -1   3  -4    2.64    0.60
  -2  -3  -4   58.99    5.94
  -2  -3  -4   55.15    4.75
  -2  -3  -4   69.60    6.16
   2  -3   4   63.66    5.29
  -2  -3  -4   54.09    4.80
  -2  -3  -4   60.58    4.78
   2  -3   4   66.82    4.90
  -2  -3  -4   68.83    4.96
  -2  -3  -4   68.54    4.92
  -2   3  -4   51.76    6.22
  -2   3  -4   57.12    4.37
  -2   3  -4   57.11    6.75
  -2   3  -4   53.12    4.45
   2   3   4   59.07    4.49
   2   3   4   65.57    4.58
   3  -3   4   18.44    1.88
   3  -3   4   16.19    2.29
  -3  -3  -4   20.29    1.99
  -3  -3  -4   17.76    3.32
  -3  -3  -4   16.72    1.91
  -3  -3  -4   16.34    1.64
  -3  -3  -4   19.01    1.86
   3  -3   4   24.97    2.96
  -3   3  -4   17.87    3.00
   3   3   4   19.44    2.45
   3   3   4   20.31    2.34
  -3   3  -4   17.33    1.60
   4  -3   4   19.52    2.54
   4  -3   4   27.75    2.63
  -4  -3  -4   24.36    2.49
   4  -3   4   19.97    2.83
  -4  -3  -4   20.45    2.05
   4  -3   4   26.21    2.82
   4  -3   4   24.25    2.34
  -4  -3  -4   18.96    2.22
   4  -3   4   24.37    2.35
   4  -3   4   21.56    2.05
  -4  -3  -4   20.07    3.87
   4   3   4   22.89    2.16
   4   3   4   25.63    2.84
   4   3   4   23.14    2.66
  -4   3  -4   18.42    1.84
   4   3   4   21.36    2.64
  -4   3  -4   20.07    2.02
   5  -3   4   15.82    2.39
  -5  -3  -4   26.26    2.04
  -5  -3  -4   20.47    1.94
  -5  -3  -4   23.24    2.30
   5  -3   4   19.48    2.56
  -5  -3  -4   21.13    2.45
   5  -3   4   16.92    2.45
  -5  -3  -4   26.97    2.99
  -5   3  -4   12.51    3.05
   5   3   4   14.73    2.32
   5   3   4   20.60    2.49
   5   3   4   16.71    1.93
  -5   3  -4   15.07    2.55
  -5   3  -4   21.85    1.65
   5   3   4   20.28    2.59
  -6  -3  -4   14.57    1.73
  -6  -3  -4   12.02    1.43
   6  -3   4    7.81    1.83
   6  -3   4   12.29    2.19
   6  -3   4    9.26    1.93
   6  -3   4    7.65    1.60
  -6  -3  -4   10.87    1.32
   6   3   4    6.57    1.40
   6   3   4    7.55    1.75
   6   3   4    6.15    1.21
   6   3   4    4.05    1.16
  -7  -3  -4    1.13    0.66
   7  -3   4    0.29    1.25
   7  -3   4    1.59    1.19
  -7  -3  -4    0.77    0.54
   7  -3   4   -0.05    0.81
  -7   3  -4    1.13    0.69
   7   3   4    0.20    0.49
   7   3   4    0.92    1.42
   7   3   4   -0.07    0.93
   7  -4  -4    3.44    1.06
  -7  -4   4    4.14    0.76
   7  -4  -4    3.21    0.66
   7  -4  -4    3.00    0.74
   7   4  -4    4.48    1.34
   7   4  -4    4.24    1.00
   7   4  -4    2.50    1.07
   6  -4  -4   15.35    2.60
   6  -4  -4   20.83    2.00
   6  -4  -4   25.80    2.78
  -6  -4   4   23.10    1.98
   6  -4  -4   21.06    2.02
  -6  -4   4   18.01    1.93
   6  -4  -4   21.38    2.44
   6   4  -4   21.96    1.99
   6   4  -4   19.21    2.40
   6   4  -4   19.95    2.19
   6   4  -4   23.01    3.63
   6   4  -4   18.19    2.28
  -6   4   4   18.00    1.99
   6   4  -4   20.90    1.90
   5  -4  -4    2.59    1.53
   5  -4  -4    5.73    1.46
  -5  -4   4    5.89    0.97
   5  -4  -4    6.07    1.30
  -5  -4   4    4.91    1.43
   5  -4  -4    5.29    0.92
   5  -4  -4    4.82    1.36
  -5  -4   4    4.92    0.82
   5  -4  -4    4.10    0.94
   5   4  -4    4.17    1.12
  -5   4   4    3.00    0.70
  -5   4   4    7.13    1.19
   5   4  -4    4.94    1.24
   5   4  -4    4.41    1.28
   5   4  -4    4.96    0.87
   5   4  -4    4.66    0.80
  -4  -4   4    9.26    1.68
   4  -4  -4    2.75    1.62
  -4  -4   4    3.41    2.75
   4  -4  -4    5.53    0.97
  -4  -4   4    4.07    2.26
   4  -4  -4    2.61    1.97
  -4  -4   4    7.25    0.99
   4  -4  -4    7.09    1.09
   4  -4  -4    8.04    1.79
  -4  -4   4    5.49    0.82
   4  -4  -4    3.92    1.15
  -4   4   4    5.45    0.84
   4   4  -4    7.36    1.32
   4   4  -4    3.43    1.30
   4   4  -4    4.83    1.25
  -4   4   4    3.04    2.42
  -4   4   4    7.30    0.98
  -3  -4   4   26.68    2.29
  -3  -4   4   27.65    2.26
   3  -4  -4   21.97    2.38
   3  -4  -4   32.80    2.43
   3  -4  -4   29.07    2.78
   3  -4  -4   22.71    2.39
   3  -4  -4   22.66    4.27
  -3  -4   4   29.71    2.65
   3  -4  -4   31.90    2.92
  -3  -4   4   25.90    3.75
  -3  -4   4   24.06    4.12
   3   4  -4   26.31    2.59
   3   4  -4   25.91    2.68
  -3   4   4   25.65    2.24
   3   4  -4   24.60    2.41
  -3   4   4   30.25    2.29
   3   4  -4   29.15    2.44
  -3   4   4   26.22    2.20
   2  -4  -4   51.20    3.82
  -2  -4   4   37.05    3.28
  -2  -4   4   42.26    3.27
   2  -4  -4   32.86    3.54
   2  -4  -4   42.20    5.24
  -2  -4   4   46.98    3.32
  -2  -4   4   41.12    4.96
  -2  -4   4   45.79    3.41
   2  -4  -4   39.23    3.64
  -2   4   4   43.16    3.27
   2   4  -4   30.54    5.53
  -2   4   4   46.14    3.28
  -2   4   4   38.08    3.66
   2   4  -4   44.86    3.59
   2   4  -4   44.35    3.36
  -2   4   4   41.48    3.31
  -1  -4   4   32.58    2.60
   1  -4  -4   32.08    2.72
  -1  -4   4   33.33    3.87
  -1  -4   4   34.70    2.77
  -1  -4   4   32.23    4.29
  -1  -4   4   32.71    2.66
   1  -4  -4   34.05    4.11
   1   4  -4   34.51    4.22
  -1   4   4   32.41    2.81
  -1   4   4   32.45    2.62
   1   4  -4   33.78    2.59
   1   4  -4   30.74    4.81
   1   4  -4   34.02    2.68
   0  -4  -4   31.59    2.74
   0  -4   4   33.96    2.77
   0  -4  -4   29.93    3.94
   0  -4   4   31.50    2.71
   0  -4   4   35.34    3.08
   0  -4  -4   34.40    2.89
   0  -4   4   35.98    3.82
   0  -4  -4   34.34    2.70
   0  -4   4   32.29    2.81
   0   4   4   32.86    2.77
   0   4  -4   34.93    4.36
   0   4  -4   34.05    2.75
   0   4   4   37.12    2.74
   0   4   4   31.50    2.65
   0   4  -4   32.31    4.62
   0   4  -4   32.25    2.62
  -1  -4  -4   29.00    3.82
  -1  -4  -4   32.87    4.14
  -1  -4  -4   34.88    2.78
   1  -4   4   33.97    3.06
  -1  -4  -4   33.04    2.56
  -1  -4  -4   33.69    2.69
   1  -4   4   29.10    2.71
  -1   4  -4   34.79    2.72
   1   4   4   36.02    2.77
  -1   4  -4   35.25    4.02
  -1   4  -4   34.57    2.84
  -1   4  -4   37.64    5.71
   1   4   4   31.94    2.94
  -2  -4  -4   40.36    3.23
   2  -4   4   35.95    3.73
   2  -4   4   36.37    3.31
  -2  -4  -4   40.98    3.38
  -2  -4  -4   45.16    3.42
  -2  -4  -4   43.56    3.21
  -2  -4  -4   42.93    3.21
   2   4   4   39.47    3.38
  -2   4  -4   37.33    5.48
  -2   4  -4   42.96    3.14
  -2   4  -4   42.35    4.60
   2   4   4   38.83    3.29
  -2   4  -4   41.02    3.24
  -3  -4  -4   24.41    4.24
   3  -4   4   25.79    3.34
   3  -4   4   35.80    2.90
   3  -4   4   30.74    2.73
  -3  -4  -4   33.57    2.86
  -3  -4  -4   29.86    2.64
   3  -4   4   30.52    2.72
   3  -4   4   27.86    3.08
   3  -4   4   29.37    3.33
  -3  -4  -4   30.99    2.51
   3   4   4   31.26    3.18
   3   4   4   24.62    3.00
  -3   4  -4   24.73    5.56
   3   4   4   29.15    3.83
  -3   4  -4   28.75    2.45
  -3   4  -4   22.73    3.73
  -3   4  -4   29.06    2.31
   3   4   4   32.68    2.58
   3   4   4   29.94    2.80
  -4  -4  -4    5.00    2.54
   4  -4   4    7.80    1.52
   4  -4   4    8.70    1.16
   4  -4   4    8.53    1.93
  -4  -4  -4    7.10    1.66
  -4  -4  -4    7.49    1.42
  -4  -4  -4    8.23    1.13
  -4  -4  -4   10.09    1.19
  -4  -4  -4    8.61    1.20
   4   4   4    8.56    1.72
   4   4   4    9.64    1.72
   4   4   4    9.49    1.82
  -4   4  -4    5.98    3.42
  -4   4  -4    9.17    1.26
   5  -4   4    4.16    1.37
   5  -4   4    5.69    2.49
   5  -4   4    3.85    1.48
  -5  -4  -4    3.88    0.81
  -5  -4  -4    3.82    1.36
  -5  -4  -4    3.46    0.79
  -5  -4  -4    5.36    1.00
   5   4   4    5.29    1.55
   5   4   4    3.57    0.93
  -5   4  -4   -1.06    3.05
   5   4   4    3.42    1.18
   5   4   4    5.16    1.37
  -5   4  -4    6.21    1.15
  -5   4  -4    4.50    0.70
   6  -4   4   25.08    2.54
  -6  -4  -4   19.68    1.97
  -6  -4  -4   22.42    2.16
  -6  -4  -4   20.55    2.01
   6  -4   4   18.68    2.71
   6  -4   4   20.68    2.44
   6   4   4   22.73    1.91
  -6   4  -4   18.85    1.75
   6   4   4   16.84    2.38
   6   4   4   18.57    2.37
  -6   4  -4   21.53    2.02
  -7  -4  -4    2.68    0.94
   7  -4   4    1.30    1.10
   7  -4   4    2.26    1.05
   7  -4   4    0.87    1.04
  -7  -4  -4    2.48    0.65
   7   4   4    0.19    0.79
   7   4   4    0.50    0.50
  -7  -5   4    1.87    0.80
  -7  -5   4    0.02    0.61
   7  -5  -4    0.77    0.55
   7  -5  -4   -0.15    0.47
   7   5  -4    0.49    0.51
   7   5  -4    0.07    0.84
   7   5  -4   -0.10    0.86
   7   5  -4    0.00    0.47
   6  -5  -4    3.51    0.83
  -6  -5   4    4.68    0.87
   6  -5  -4    2.78    1.14
   6  -5  -4    3.68    1.34
   6  -5  -4    4.64    0.90
   6   5  -4    4.98    1.33
   6   5  -4    3.79    0.78
   6   5  -4    3.95    0.99
   6   5  -4    5.90    2.42
   6   5  -4    4.61    1.35
   6   5  -4    4.46    0.84
  -5  -5   4   15.48    2.47
   5  -5  -4   20.51    2.46
   5  -5  -4   17.63    2.38
   5  -5  -4   17.32    1.81
  -5  -5   4   14.06    1.68
  -5  -5   4   16.50    2.01
   5  -5  -4   17.44    1.80
   5   5  -4   15.96    1.65
   5   5  -4   14.89    2.01
   5   5  -4   12.17    2.14
   5   5  -4   17.05    1.97
   5   5  -4   15.92    1.58
   4  -5  -4    9.41    1.80
  -4  -5   4    5.65    3.46
   4  -5  -4    8.57    1.17
  -4  -5   4    7.86    1.15
  -4  -5   4    7.51    2.45
  -4  -5   4    8.88    1.26
   4  -5  -4    9.46    1.16
  -4  -5   4   11.53    1.57
   4   5  -4   10.85    1.93
  -4   5   4   10.31    1.32
   4   5  -4   11.03    1.74
   4   5  -4    9.89    1.32
  -4   5   4   12.47    1.21
  -3  -5   4   22.96    1.88
  -3  -5   4   21.50    1.81
   3  -5  -4   15.08    2.36
   3  -5  -4   22.90    2.01
  -3  -5   4   24.91    2.18
   3  -5  -4   18.60    2.47
   3  -5  -4   22.29    1.98
   3  -5  -4   15.83    3.07
  -3  -5   4   19.34    1.82
  -3  -5   4   21.88    3.52
   3   5  -4   18.87    2.11
   3   5  -4   24.51    2.54
   3   5  -4   25.24    2.28
  -3   5   4   23.24    2.00
  -3   5   4   25.97    2.09
   3   5  -4   23.04    2.43
  -2  -5   4   13.11    1.27
  -2  -5   4   10.33    1.44
   2  -5  -4   11.11    1.61
  -2  -5   4    8.47    2.27
   2  -5  -4   13.07    1.79
  -2  -5   4   12.63    1.52
  -2  -5   4   12.22    1.21
   2   5  -4   11.41    1.52
   2   5  -4   11.58    3.20
  -2   5   4   11.83    1.22
   2   5  -4   10.69    1.31
   2   5  -4   12.14    1.96
   2   5  -4   12.80    1.31
  -2   5   4   10.88    1.21
   2   5  -4   10.03    1.60
  -1  -5   4    9.25    1.02
  -1  -5   4   10.05    1.49
  -1  -5   4    8.91    0.99
   1  -5  -4    7.05    1.53
  -1  -5   4   12.02    1.16
  -1  -5   4    6.68    1.96
   1  -5  -4   11.35    1.35
   1   5  -4    9.86    1.19
  -1   5   4   11.60    1.26
   1   5  -4   11.61    1.07
  -1   5   4   10.69    1.16
   1   5  -4    7.10    2.14
  -1   5   4   11.85    1.17
   0  -5   4   28.52    2.83
   0  -5   4   31.19    3.08
   0  -5   4   23.07    3.07
   0  -5   4   29.53    2.38
   0  -5   4   20.38    4.38
   0  -5  -4   30.51    2.45
   0  -5  -4   26.96    4.23
   0  -5  -4   28.92    2.47
   0  -5   4   28.82    4.72
   0   5  -4   33.11    5.67
   0   5   4   30.58    2.40
   0   5  -4   30.41    2.48
   0   5   4   29.78    2.49
   0   5  -4   29.32    2.33
   0   5  -4   22.83    4.57
   0   5   4   27.85    2.38
   1  -5   4   11.67    1.77
  -1  -5  -4    8.32    1.39
  -1  -5  -4   11.50    2.44
  -1  -5  -4    8.49    1.27
  -1  -5  -4    7.14    1.84
   1   5   4   10.36    1.39
   1   5   4   11.31    1.59
  -1   5  -4   12.60    1.17
   1   5   4   12.70    1.19
  -1   5  -4   10.88    2.54
  -1   5  -4   12.07    1.32
   2  -5   4   10.56    1.71
  -2  -5  -4   12.31    1.67
  -2  -5  -4   11.86    1.60
  -2  -5  -4   12.74    1.16
   2  -5   4    8.91    1.40
  -2  -5  -4    7.18    2.22
  -2  -5  -4   14.23    1.40
  -2  -5  -4   11.72    1.16
   2  -5   4   10.68    1.97
   2   5   4    9.39    1.48
  -2   5  -4   13.32    1.15
   2   5   4   10.50    1.53
  -2   5  -4   10.49    1.53
  -2   5  -4    9.63    3.82
   3  -5   4   20.67    2.48
   3  -5   4   12.93    2.12
  -3  -5  -4   18.63    2.31
   3  -5   4   18.01    2.88
  -3  -5  -4   18.69    1.86
   3  -5   4   23.32    3.81
   3  -5   4   17.17    1.91
  -3  -5  -4   18.64    1.72
   3   5   4    6.63    2.77
  -3   5  -4    9.22    2.27
   3   5   4    6.48    1.25
  -3   5  -4    3.28    2.60
   4  -5   4    7.49    1.55
  -4  -5  -4    4.71    2.23
  -4  -5  -4    4.35    1.32
  -4  -5  -4    5.37    1.63
   4  -5   4    5.34    1.50
   4  -5   4    4.12    1.49
  -4   5  -4    7.24    1.17
   4   5   4    4.36    1.24
   4   5   4    9.66    1.30
   4   5   4    6.89    1.65
  -4   5  -4    2.26    2.35
  -5  -5  -4   12.56    2.12
  -5  -5  -4   15.76    1.58
  -5  -5  -4   18.35    1.95
  -5  -5  -4    6.97    5.16
   5  -5   4   16.27    2.32
  -5  -5  -4   14.83    1.73
   5  -5   4   12.95    1.94
   5  -5   4   15.66    2.19
   5   5   4   15.15    1.96
   5   5   4   17.55    2.54
  -5   5  -4   14.61    2.07
   5   5   4   16.57    2.40
  -5   5  -4   19.61    1.73
   5   5   4   15.52    1.80
  -6  -5  -4    4.49    0.89
   6  -5   4    2.44    1.13
   6  -5   4    2.96    1.31
  -6  -5  -4    2.97    0.73
   6  -5   4    2.50    1.42
   6   5   4    1.16    1.29
   6   5   4    2.43    0.77
  -7  -5  -4    0.18    0.55
   7  -5   4    0.27    0.80
   7  -5   4    1.03    1.06
  -7  -5  -4    0.79    0.69
   7  -5   4    1.01    1.06
  -7  -5  -4    1.56    0.87
   7   5   4    0.87    0.85
   7  -6  -4    7.03    1.00
   7  -6  -4    5.91    0.92
  -7  -6   4    8.74    0.94
   7  -6  -4    7.57    1.15
   7   6  -4    5.84    1.32
   7   6  -4    6.81    1.01
   7   6  -4    6.78    1.02
   7   6  -4    7.13    1.22
   6  -6  -4    5.87    1.34
   6  -6  -4    5.73    0.94
   6  -6  -4    3.97    1.19
  -6  -6   4    5.36    1.47
   6  -6  -4    4.99    0.88
  -6  -6   4    5.71    0.90
   6   6  -4    4.40    0.80
   6   6  -4    5.47    1.42
   6   6  -4    4.91    1.33
   6   6  -4    5.55    0.91
  -5  -6   4    9.08    1.31
   5  -6  -4    7.49    2.51
  -5  -6   4    7.92    1.06
   5  -6  -4    6.47    1.12
   5  -6  -4    7.08    1.37
   5   6  -4    6.40    1.27
  -5   6   4    8.39    1.29
   5   6  -4    7.14    1.55
   5   6  -4    7.55    1.18
   5   6  -4    6.71    0.99
  -5   6   4    4.86    1.32
  -4  -6   4    4.21    0.81
   4  -6  -4    3.11    1.22
  -4  -6   4    1.27    2.30
   4  -6  -4    4.30    0.86
   4  -6  -4    3.07    1.40
  -4  -6   4    4.57    1.52
   4  -6  -4    2.55    0.92
  -4  -6   4    5.16    1.10
   4   6  -4    4.45    1.18
   4   6  -4    3.93    1.41
   4   6  -4    3.19    0.73
  -4   6   4    4.56    1.01
  -4   6   4    5.00    0.98
  -4   6   4    3.81    0.77
  -3  -6   4    6.76    0.89
   3  -6  -4    5.52    0.86
  -3  -6   4    6.15    0.98
   3  -6  -4    4.77    0.92
   3  -6  -4    6.22    1.51
  -3  -6   4    5.21    1.30
   3  -6  -4    7.01    2.07
  -3  -6   4    5.65    0.95
  -3  -6   4    2.89    2.37
   3  -6  -4    4.64    0.96
   3   6  -4    4.46    1.23
   3   6  -4    4.48    1.08
   3   6  -4    2.94    1.35
   3   6  -4    4.55    0.87
  -3   6   4    5.62    0.92
  -2  -6   4   15.37    2.03
  -2  -6   4   13.04    2.36
   2  -6  -4   16.57    2.38
   2  -6  -4   16.74    1.78
   2  -6  -4   18.24    2.39
  -2  -6   4   15.59    1.71
   2  -6  -4   18.43    2.44
   2  -6  -4   17.81    1.76
  -2  -6   4   15.21    1.58
  -2   6   4   17.40    1.85
   2   6  -4   16.66    1.48
   2   6  -4   16.29    1.72
  -2   6   4   15.80    1.54
   2   6  -4   12.54    1.87
   2   6  -4   18.21    1.57
  -2   6   4   16.04    1.63
   1  -6  -4    7.69    1.84
   1  -6  -4    5.59    1.03
  -1  -6   4    2.61    1.41
  -1  -6   4    6.80    1.36
   1  -6  -4    6.63    0.99
  -1  -6   4    6.60    0.82
  -1  -6   4    4.54    0.84
   1  -6  -4    3.76    1.06
  -1   6   4    4.44    0.72
   1   6  -4    3.76    1.67
   1   6  -4    3.59    0.92
   1   6  -4    4.92    0.74
  -1   6   4    4.54    0.98
   1   6  -4    4.98    1.05
  -1   6   4    4.45    0.83
   1   6  -4    4.85    0.77
   1   6  -4    2.57    1.99
   0  -6   4   35.04    2.79
   0  -6   4   31.59    3.06
   0  -6  -4   37.04    3.00
   0  -6  -4   31.62    4.56
   0  -6   4   33.30    2.91
   0  -6  -4   35.59    3.09
   0  -6  -4   27.10    2.94
   0   6   4   38.36    2.88
   0   6   4   35.75    2.98
   0   6  -4   38.09    2.98
   0   6  -4   34.17    2.88
   0   6  -4   35.43    4.86
   0   6  -4   25.38    5.28
  -1  -6  -4    5.86    1.00
   1  -6   4    4.23    1.28
  -1  -6  -4    3.30    1.13
  -1  -6  -4    3.49    0.91
  -1  -6  -4    2.85    1.64
  -1  -6  -4    6.39    3.78
  -1  -6  -4    4.65    1.23
   1  -6   4    3.56    1.01
  -1   6  -4    3.85    1.37
   1   6   4    3.66    0.98
   1   6   4    5.36    0.93
   1   6   4    5.65    0.78
  -1   6  -4    5.62    0.75
  -1   6  -4    4.85    0.91
  -1   6  -4    2.73    2.21
  -2  -6  -4   18.30    1.78
  -2  -6  -4   17.91    2.32
  -2  -6  -4   18.93    1.67
   2  -6   4   14.83    2.48
   2  -6   4   17.67    2.43
  -2  -6  -4   14.12    3.18
  -2  -6  -4   18.28    2.03
   2  -6   4   20.04    2.32
  -2  -6  -4   16.74    2.03
   2  -6   4   18.48    2.01
  -2  -6  -4   15.84    1.58
  -2  -6  -4   17.12    2.53
   2   6   4   21.49    1.70
   2   6   4   17.53    1.79
   2   6   4   15.76    2.00
  -2   6  -4   19.30    1.60
  -2   6  -4   14.85    2.10
  -2   6  -4   13.41    2.91
   2   6   4   14.23    2.02
  -2   6  -4   17.82    1.80
  -3  -6  -4    6.78    1.06
  -3  -6  -4    5.14    2.56
  -3  -6  -4    6.24    0.98
  -3  -6  -4    6.92    1.60
  -3  -6  -4    8.61    1.65
   3  -6   4    5.33    1.50
   3  -6   4    6.36    1.71
   3  -6   4    8.03    1.05
   3  -6   4    7.59    2.07
   3  -6   4   10.26    1.60
   3   6   4    8.22    1.28
  -3   6  -4    8.98    4.17
   3   6   4    5.81    1.32
  -3   6  -4    7.06    1.01
  -3   6  -4    4.40    3.74
  -3   6  -4    5.90    1.09
   3   6   4    6.14    0.91
  -4  -6  -4    2.40    1.79
  -4  -6  -4    0.85    0.68
  -4  -6  -4    1.37    1.94
  -4  -6  -4    2.14    0.68
   4  -6   4    2.39    1.44
   4  -6   4    1.71    1.36
  -4  -6  -4    1.56    0.78
   4  -6   4    1.79    1.30
   4  -6   4    4.30    1.51
   4  -6   4    2.00    1.37
   4   6   4    1.80    1.00
  -4   6  -4    3.15    1.05
  -4   6  -4   -0.94    2.65
   5  -6   4    4.04    2.41
  -5  -6  -4    3.99    0.93
  -5  -6  -4    1.10    2.14
  -5  -6  -4    5.79    1.14
   5  -6   4    6.14    1.73
   5  -6   4    4.66    1.70
  -5  -6  -4    5.23    1.05
   5  -6   4    6.15    1.96
   5  -6   4    1.72    2.58
  -5  -6  -4    8.20    1.21
  -5   6  -4    3.89    1.26
   5   6   4    1.86    0.77
   5   6   4    4.19    1.97
   5   6   4    2.69    1.29
  -6  -6  -4    3.53    0.77
  -6  -6  -4    4.26    0.85
  -6  -6  -4    5.36    1.22
   6  -6   4    3.72    1.24
   6  -6   4    3.17    1.08
   6  -6   4    4.02    1.62
  -6   6  -4    2.69    0.51
  -6   6  -4   -0.94    1.08
   6   6   4    2.35    0.66
   6   6   4    0.52    0.49
   6   6   4    1.43    1.57
   7  -6   4    3.66    1.31
  -7  -6  -4    6.44    1.27
   7  -6   4    5.48    0.99
   7   6   4    0.60    0.31
   6  -7  -4    2.79    0.66
  -6  -7   4    3.47    0.77
  -6  -7   4    2.80    0.88
   6  -7  -4    2.95    1.34
   6  -7  -4    3.45    1.83
   6   7  -4    3.20    1.34
   6   7  -4    2.18    0.68
   5  -7  -4    3.99    0.91
   5  -7  -4    2.99    1.29
   5  -7  -4    3.32    0.89
  -5  -7   4    4.61    0.87
  -5  -7   4    4.98    0.92
   5  -7  -4    2.27    1.19
  -5   7   4    3.30    0.99
   5   7  -4    2.91    0.74
   5   7  -4    3.41    1.47
   5   7  -4    2.91    1.03
   5   7  -4    3.51    0.85
  -4  -7   4   28.34    2.86
   4  -7  -4   31.87    2.72
   4  -7  -4   33.72    2.74
   4  -7  -4   21.27    3.96
  -4  -7   4   25.84    5.21
  -4  -7   4   33.26    2.63
  -4  -7   4   29.16    3.56
   4  -7  -4   33.75    3.36
  -4  -7   4   30.66    2.64
   4  -7  -4   28.87    3.11
  -4   7   4   31.36    3.00
   4   7  -4   32.77    3.43
   4   7  -4   33.08    2.79
   4   7  -4   34.55    3.22
  -4   7   4   36.64    2.86
   4   7  -4   30.80    2.90
  -3  -7   4    8.39    1.12
   3  -7  -4    6.04    1.22
  -3  -7   4    7.18    1.15
   3  -7  -4    6.03    1.51
   3  -7  -4    9.37    1.20
   3  -7  -4    7.36    1.77
   3   7  -4    7.61    2.05
  -3   7   4    5.60    0.78
  -3   7   4    4.69    0.83
   3   7  -4    2.95    1.50
  -3   7   4    4.66    1.07
   3   7  -4    5.47    0.98
   3   7  -4    3.48    1.17
   2  -7  -4    2.03    1.89
   2  -7  -4    1.74    0.84
   2  -7  -4    1.82    0.81
   2  -7  -4    0.17    1.46
  -2  -7   4    2.72    1.50
  -2  -7   4    3.02    0.67
   2  -7  -4    1.49    1.21
  -2  -7   4    2.24    1.70
   2  -7  -4    3.88    1.64
  -2  -7   4    3.80    0.65
  -2  -7   4   -1.51    2.47
  -2  -7   4    2.51    0.74
   2   7  -4    1.84    0.92
  -2   7   4    2.67    0.91
   2   7  -4    2.44    0.73
  -2   7   4    2.81    0.79
   2   7  -4   -1.70    2.82
   2   7  -4    2.42    2.19
  -2   7   4    2.74    0.71
   2   7  -4    2.73    0.87
   1  -7  -4   13.70    1.55
  -1  -7   4   12.50    2.14
  -1  -7   4   11.15    1.52
   1  -7  -4   16.74    2.15
   1  -7  -4   14.40    1.69
   1  -7  -4   11.51    1.84
  -1  -7   4   15.04    1.89
   1   7  -4   14.72    1.26
   1   7  -4   12.45    1.89
   1   7  -4   10.26    1.60
   1   7  -4   12.91    1.34
  -1   7   4   13.13    1.42
  -1   7   4   11.50    1.37
   1   7  -4    9.71    1.35
  -1   7   4   12.14    1.57
   0  -7   4   13.55    1.99
   0  -7   4   12.69    2.25
   0  -7   4   12.08    1.55
   0  -7  -4   13.91    1.83
   0  -7  -4   10.60    2.45
   0  -7  -4   13.22    1.97
   0  -7  -4   13.56    2.58
   0  -7  -4   14.84    1.62
   0  -7  -4   13.72    1.95
   0   7  -4   14.12    1.62
   0   7  -4   16.13    3.26
   0   7   4   12.90    1.73
   0   7   4   15.16    1.69
   0   7  -4   11.56    1.77
   0   7  -4   11.74    1.48
   0   7  -4   13.01    1.28
   0   7   4   13.95    1.39
   0   7  -4    9.72    1.39
  -1  -7  -4   14.14    1.92
  -1  -7  -4   11.63    1.95
  -1  -7  -4   15.94    1.57
   1  -7   4   14.87    1.86
   1  -7   4   11.84    2.00
  -1   7  -4   13.08    1.38
  -1   7  -4   13.55    3.40
   1   7   4   12.81    1.92
   1   7   4   15.56    1.66
  -1   7  -4   13.61    1.63
  -2  -7  -4    3.53    0.86
  -2  -7  -4    0.50    1.31
  -2  -7  -4    3.37    0.87
  -2  -7  -4   -1.19    3.00
   2  -7   4    1.42    1.35
  -2  -7  -4    3.87    1.03
   2  -7   4    2.21    1.46
   2  -7   4    1.80    1.35
  -2  -7  -4    1.40    1.27
   2  -7   4    1.68    0.85
   2   7   4    0.55    1.33
   2   7   4    1.55    0.88
  -2   7  -4    1.98    3.06
   2   7   4    0.94    0.53
   2   7   4   -0.33    1.45
  -2   7  -4   -0.11    2.38
   2   7   4    2.26    0.70
  -2   7  -4    1.37    0.87
  -3  -7  -4    3.10    3.13
  -3  -7  -4    8.17    1.33
  -3  -7  -4    6.32    1.22
   3  -7   4    9.49    2.21
  -3  -7  -4    5.45    2.23
  -3  -7  -4    9.78    1.23
   3  -7   4    8.99    2.37
   3  -7   4    9.34    1.53
  -3  -7  -4    6.35    1.91
   3   7   4    7.27    0.99
   3   7   4   10.35    1.35
  -3   7  -4    7.99    1.39
  -3   7  -4    7.59    1.13
  -3   7  -4    6.04    2.84
   3   7   4    9.37    1.60
  -3   7  -4    8.37    1.43
   4  -7   4   25.29    3.18
   4  -7   4   31.11    3.68
   4  -7   4   29.91    3.17
   4  -7   4   33.14    3.82
  -4  -7  -4   33.77    2.64
   4  -7   4   28.40    3.09
  -4  -7  -4   30.09    2.89
  -4  -7  -4   28.46    2.64
  -4   7  -4   31.94    2.98
   4   7   4   24.19    2.85
   4   7   4   33.25    2.82
  -4   7  -4   32.40    2.58
  -5  -7  -4    4.96    0.87
  -5  -7  -4    3.53    1.05
   5  -7   4    6.41    2.07
   5  -7   4    3.40    1.85
   5  -7   4    1.84    1.12
   5  -7   4    2.38    1.29
  -5  -7  -4    3.23    0.82
   5  -7   4    1.19    1.23
  -5   7  -4    3.71    0.66
   5   7   4    2.47    0.87
  -6  -7  -4    3.66    1.09
   6  -7   4    1.99    1.57
   6  -7   4    2.17    1.21
  -6  -7  -4    3.85    0.73
   6   7   4    1.48    0.68
   6   7   4    0.68    0.42
  -6   7  -4    1.64    0.71
   6  -8  -4    3.32    1.18
   6  -8  -4    2.02    1.07
   6  -8  -4    2.05    0.58
   6   8  -4    2.95    0.61
   6   8  -4    5.56    0.92
   5  -8  -4    3.26    0.77
  -5  -8   4    4.12    0.90
   5  -8  -4    3.10    1.11
   5  -8  -4    3.02    1.27
   5   8  -4    2.25    0.67
   5   8  -4    0.90    1.77
  -5   8   4   -0.34    0.93
   5   8  -4    2.48    0.84
   4  -8  -4   17.22    1.97
  -4  -8   4   15.71    2.03
  -4  -8   4   16.54    1.80
   4  -8  -4   17.27    3.31
   4  -8  -4   17.57    2.88
   4  -8  -4   16.48    1.78
   4   8  -4   14.10    1.55
  -4   8   4   13.63    2.07
   4   8  -4   13.38    1.68
   4   8  -4   12.34    2.82
  -4   8   4   14.61    1.71
   3  -8  -4    5.12    1.72
  -3  -8   4   10.83    2.22
   3  -8  -4    8.25    1.62
   3  -8  -4    7.56    1.64
   3  -8  -4    7.85    1.18
  -3  -8   4    2.00    3.35
   3  -8  -4    8.88    1.46
   3   8  -4    9.66    1.07
  -3   8   4   10.41    1.47
   3   8  -4    6.99    1.49
   3   8  -4    8.97    1.36
   3   8  -4   12.04    1.77
  -3   8   4    6.50    1.37
  -2  -8   4    0.62    3.55
   2  -8  -4    5.45    1.79
  -2  -8   4    7.17    0.98
  -2  -8   4    4.60    4.91
  -2  -8   4    5.89    1.09
  -2  -8   4   10.33    1.66
  -2   8   4    6.72    1.04
   2   8  -4    8.05    1.14
   2   8  -4    1.96    2.90
   2   8  -4    8.22    1.29
   2   8  -4    4.26    4.23
   2   8  -4    5.55    1.75
  -2   8   4    6.38    1.25
  -2   8   4    6.76    1.03
   1  -8  -4   10.70    2.14
  -1  -8   4    7.20    1.23
  -1  -8   4    8.45    1.58
   1  -8  -4   11.18    1.95
   1  -8  -4   10.92    1.41
   1   8  -4    7.71    1.40
   1   8  -4    9.39    1.12
  -1   8   4    8.71    1.46
  -1   8   4    8.41    1.23
   1   8  -4    9.56    1.27
   1   8  -4    7.66    1.71
  -1   8   4    7.36    1.31
   1   8  -4    8.44    1.47
   0  -8   4    7.67    2.35
   0  -8   4    7.87    1.97
   0  -8   4    6.23    1.34
   0  -8  -4    7.46    1.66
   0  -8   4    7.05    1.18
   0  -8  -4    7.09    1.24
   0  -8  -4    9.11    2.33
   0  -8  -4    9.62    1.24
   0   8   4    6.70    0.96
   0   8  -4    7.76    0.97
   0   8   4    6.55    1.26
   0   8  -4    5.40    0.98
   0   8  -4    7.48    1.39
   0   8  -4    6.68    1.03
   0   8   4    5.30    1.07
   0   8  -4    9.12    1.45
  -1  -8  -4    6.44    1.88
   1  -8   4    6.98    1.73
  -1  -8  -4   10.03    1.55
   1  -8   4    9.26    2.00
   1  -8   4    8.50    1.48
   1   8   4    8.22    1.52
  -1   8  -4    9.40    1.50
  -1   8  -4    8.95    1.85
  -1   8  -4    8.53    1.16
   1   8   4   10.52    1.58
  -1   8  -4    6.94    3.01
  -1   8  -4    8.81    1.13
  -2  -8  -4    3.87    1.85
  -2  -8  -4    3.59    1.40
   2  -8   4    5.60    1.64
   2  -8   4    5.60    1.56
  -2  -8  -4    4.59    0.99
  -2   8  -4    5.49    0.85
   2   8   4    7.96    1.04
   2   8   4    4.77    1.09
  -2   8  -4    5.88    1.23
  -2   8  -4    5.76    1.26
   3  -8   4    9.81    2.93
   3  -8   4    7.69    1.53
  -3  -8  -4    7.78    1.62
  -3  -8  -4    9.33    1.85
   3  -8   4    7.66    1.12
  -3  -8  -4    8.25    3.90
  -3  -8  -4    8.70    1.66
  -3  -8  -4    5.76    4.43
   3  -8   4    8.51    1.91
   3  -8   4   10.86    1.74
  -3   8  -4    7.69    1.44
   3   8   4    7.06    0.97
  -3   8  -4    7.89    1.26
   3   8   4    8.35    1.56
   3   8   4    7.32    1.85
   4  -8   4   10.33    1.79
  -4  -8  -4   13.70    1.58
   4  -8   4   15.26    3.01
   4  -8   4   11.08    1.89
  -4  -8  -4   14.30    1.91
  -4  -8  -4    9.90    1.45
   4  -8   4    7.39    3.18
  -4   8  -4   15.81    2.33
  -4   8  -4   13.90    1.65
   4   8   4   11.25    1.94
   4   8   4   15.24    1.83
   5  -8   4    1.95    1.12
  -5  -8  -4    4.78    0.86
  -5  -8  -4    3.33    1.11
   5  -8   4    2.92    1.08
   5   8   4    4.56    1.75
  -5   8  -4    3.52    0.66
   5   8   4    2.75    0.87
   6  -8   4    0.24    0.69
  -6  -8  -4    2.16    1.39
  -6  -8  -4    3.64    1.24
   6  -8   4    1.20    0.88
   6   8   4    2.10    0.72
   5  -9  -4    2.18    1.00
  -5  -9   4    2.24    0.77
   5  -9  -4    2.25    0.72
   5  -9  -4    2.91    1.54
   5   9  -4    2.32    0.78
   5   9  -4    3.47    1.01
  -4  -9   4    2.77    0.83
   4  -9  -4    1.75    1.33
   4  -9  -4    3.09    0.79
   4  -9  -4    2.06    1.09
  -4  -9   4    2.65    0.80
   4  -9  -4    1.83    1.43
   4   9  -4    2.61    1.11
  -4   9   4    2.27    0.96
   4   9  -4    0.93    1.21
   3  -9  -4   22.58    3.13
   3  -9  -4   24.55    3.48
  -3  -9   4   20.12    2.23
   3  -9  -4   27.02    2.20
  -3  -9   4   25.72    3.31
   3  -9  -4   17.83    2.46
   3   9  -4   28.56    2.73
  -3   9   4   17.76    2.97
  -3   9   4   19.44    3.01
   3   9  -4   22.44    2.38
   3   9  -4   30.67    2.90
  -3   9   4   27.70    2.40
  -2  -9   4    2.88    0.98
   2  -9  -4    3.98    3.43
  -2  -9   4    0.32    1.37
   2  -9  -4    2.10    0.85
   2  -9  -4    2.82    1.16
   2  -9  -4    3.08    1.44
  -2   9   4    2.35    1.09
  -2   9   4    2.76    0.84
  -2   9   4    2.49    1.19
   2   9  -4    3.39    1.02
   1  -9  -4    1.92    1.34
  -1  -9   4    2.80    1.20
   1  -9  -4    1.05    1.47
   1  -9  -4    2.34    0.91
   1  -9  -4    3.59    0.96
  -1  -9   4    1.13    0.84
   1   9  -4    2.68    2.19
  -1   9   4    1.54    0.95
   1   9  -4    2.28    0.68
  -1   9   4    2.17    1.48
   1   9  -4   -0.98    1.67
  -1   9   4    1.93    0.80
   1   9  -4    1.74    0.67
   0  -9   4   12.91    2.36
   0  -9  -4   11.88    1.63
   0  -9  -4   11.31    1.78
   0  -9  -4   11.99    2.01
   0  -9   4    6.87    2.62
   0  -9  -4   13.05    2.52
   0  -9   4   12.85    2.02
   0   9   4    9.58    1.35
   0   9  -4   11.66    1.42
   0   9  -4   10.38    1.34
   0   9  -4   11.98    2.00
   1  -9   4    3.19    1.07
  -1  -9  -4   -3.05    3.71
  -1  -9  -4    2.30    3.98
   1  -9   4    2.02    1.63
  -1  -9  -4    2.39    1.11
   1  -9   4    2.55    1.65
  -1   9  -4    1.90    0.83
  -1   9  -4    1.88    2.65
   1   9   4   -0.31    2.26
  -1   9  -4    1.81    1.29
  -1   9  -4    1.92    0.68
   1   9   4    2.37    0.83
   1   9   4    2.36    1.08
   2  -9   4    2.13    1.56
  -2  -9  -4    3.04    1.16
  -2  -9  -4    1.37    3.26
   2  -9   4    1.37    1.00
   2  -9   4    2.69    1.40
  -2  -9  -4    1.73    1.25
   2   9   4    1.45    1.15
  -2   9  -4    1.99    0.90
  -2   9  -4    1.93    0.70
  -2   9  -4    2.43    3.38
  -2   9  -4    0.79    1.21
   2   9   4    0.10    1.95
   2   9   4    2.41    0.78
   3  -9   4   24.64    3.04
  -3  -9  -4   22.49    2.44
   3  -9   4   24.61    3.93
   3  -9   4   21.03    2.88
   3  -9   4   18.12    3.01
   3   9   4   18.60    2.16
  -3   9  -4   20.75    1.89
  -3   9  -4   17.40    2.46
  -3   9  -4   26.37    3.52
  -4  -9  -4    2.63    2.16
   4  -9   4    2.46    1.20
   4  -9   4    0.89    1.18
   4  -9   4    1.60    1.17
  -4  -9  -4    1.51    1.37
   4  -9   4    0.85    1.93
  -4   9  -4    4.27    1.41
  -5  -9  -4    2.15    1.06
   5  -9   4    2.22    0.96
   5  -9   4    1.64    1.01
  -5   9  -4    1.83    0.61
  -5   9  -4    1.19    1.10
   5   9   4    1.87    0.82
   5   9   4    3.81    2.41
   5 -10  -4    0.78    1.06
   5 -10  -4    0.86    0.90
   5  10  -4    0.71    0.67
   4 -10  -4    7.89    1.46
   4 -10  -4    5.63    1.19
   4 -10  -4    9.26    1.21
   4  10  -4    7.01    2.55
   3 -10  -4   11.82    1.99
   3 -10  -4   15.02    2.57
  -3 -10   4   19.97    2.46
   3 -10  -4   13.05    2.23
  -3 -10   4   18.77    2.35
   3 -10  -4   14.54    1.65
  -3  10   4   15.51    1.96
   3  10  -4   18.05    2.00
   3  10  -4   18.72    2.51
  -2 -10   4   14.22    2.03
  -2 -10   4   15.78    1.83
   2 -10  -4   16.77    2.09
   2 -10  -4   17.21    1.87
   2 -10  -4   14.17    2.66
  -2  10   4   14.40    2.00
   2  10  -4   16.59    1.93
  -2  10   4   18.27    2.66
  -2  10   4   13.27    1.72
   2  10  -4   14.98    1.92
  -1 -10   4   11.72    2.16
   1 -10  -4   10.16    1.36
  -1 -10   4   10.66    1.58
   1 -10  -4    7.74    1.83
  -1 -10   4   11.00    1.65
   1 -10  -4   10.95    1.82
   1  10  -4    9.68    1.29
  -1  10   4   11.65    1.72
   1  10  -4    9.03    1.28
  -1  10   4    9.78    1.91
   0 -10  -4    2.47    1.47
   0 -10   4    4.35    2.02
   0 -10   4    4.26    1.21
   0 -10  -4    3.82    1.09
   0 -10   4    3.35    2.34
   0  10   4    3.14    0.82
   0  10  -4    4.84    2.09
   0  10  -4    3.12    0.83
   0  10  -4    1.19    2.15
   0  10   4    2.96    1.69
   0  10  -4    3.70    0.76
   0  10   4    3.42    0.96
   1 -10   4    9.75    1.47
   1 -10   4   10.24    2.26
  -1 -10  -4   12.32    1.93
  -1 -10  -4   14.29    2.07
   1 -10   4    9.64    1.98
  -1  10  -4    8.47    1.18
  -1  10  -4    9.85    1.38
   1  10   4    7.54    2.59
   1  10   4    8.02    1.38
   1  10   4    9.14    1.28
  -1  10  -4    1.86    3.76
  -1  10  -4   10.37    2.00
   1  10   4    6.98    1.08
   2 -10   4    8.25    1.86
   2 -10   4   12.23    1.90
  -2 -10  -4   13.99    1.94
   2 -10   4    9.38    3.02
   2  10   4    5.83    1.60
  -2  10  -4   10.54    1.49
   2  10   4    9.43    1.53
   2  10   4    9.96    1.39
   2  10   4    9.17    3.48
  -2  10  -4    9.08    3.32
  -2  10  -4    9.69    1.28
  -2  10  -4   15.23    3.97
  -3 -10  -4   12.11    1.98
   3 -10   4   11.12    1.81
   3 -10   4   16.03    3.14
   3 -10   4   12.51    2.12
  -3 -10  -4   12.92    1.93
   3 -10   4   10.30    1.84
  -3  10  -4   13.16    1.79
  -3  10  -4   13.33    1.57
   3  10   4    8.68    1.89
   3  10   4   13.88    2.31
   3  10   4   11.98    1.44
   4 -10   4    6.22    1.22
   4 -10   4    4.32    1.18
   4 -10   4    3.93    1.15
  -4  10  -4    5.63    1.41
  -4  10  -4    9.40    1.24
   4  10   4   10.11    1.65
   5 -10   4    0.50    0.82
   5 -10   4   -0.18    0.61
  -5 -10  -4    1.25    0.82
  -5  10  -4    2.59    0.60
   5  10   4    1.10    0.87
   4 -11  -4   -0.52    0.93
   4 -11  -4    1.56    1.27
   4 -11  -4    0.56    0.82
  -4 -11   4   -1.82    2.29
   4  11  -4    0.58    0.55
  -4  11   4    1.73    0.91
  -4  11   4   -0.31    0.56
   3 -11  -4    0.87    1.01
   3 -11  -4    0.36    0.97
  -3 -11   4    2.27    2.34
   3 -11  -4    1.43    1.10
  -3 -11   4    1.75    0.75
  -3  11   4    1.47    1.16
  -2 -11   4    1.05    1.30
   2 -11  -4    1.11    1.18
   2 -11  -4    2.65    1.34
   2 -11  -4    0.75    1.10
   2  11  -4    0.67    1.01
   2  11  -4    1.16    0.67
  -2  11   4    0.56    0.99
   1 -11  -4   22.57    2.44
   1 -11  -4   18.75    3.34
  -1 -11   4   19.52    2.56
  -1 -11   4   26.02    4.04
   1  11  -4   20.78    1.99
   1  11  -4   20.25    3.37
  -1  11   4   18.00    1.96
  -1  11   4   16.37    1.80
  -1  11   4   16.61    2.22
   0 -11   4    5.91    2.49
   0 -11   4   11.43    1.83
   0 -11  -4    8.22    1.64
   0  11  -4    9.29    1.37
   0  11   4    9.21    1.38
   0  11   4   10.31    1.70
  -1 -11  -4   20.79    2.63
   1 -11   4   16.23    2.60
   1 -11   4   17.26    2.47
   1 -11   4   24.91    3.99
   1 -11   4   18.38    2.42
  -1  11  -4   16.87    1.71
   1  11   4   17.82    1.66
   1  11   4   14.89    1.99
  -1  11  -4   15.84    1.66
   2 -11   4    0.68    0.83
   2 -11   4    1.06    1.35
   2 -11   4    2.05    1.00
  -2 -11  -4    0.00    1.03
   2 -11   4    1.33    1.32
  -2 -11  -4    2.33    1.09
  -2  11  -4    1.71    0.72
   2  11   4    0.22    0.66
   2  11   4   -1.87    2.58
   2  11   4    0.16    1.11
  -2  11  -4    1.26    0.78
   3 -11   4    1.70    0.97
  -3 -11  -4    0.97    0.99
   3 -11   4    1.36    1.25
   3 -11   4    2.03    1.19
  -3 -11  -4    3.69    1.68
   3  11   4    5.86    1.02
   3  11   4    3.65    1.02
   3  11   4    3.18    2.99
  -3  11  -4    2.81    0.78
  -4 -11  -4    0.53    1.39
   4 -11   4    0.36    0.85
  -4 -11  -4    1.85    2.32
   4 -11   4    0.21    0.64
   4 -11   4    1.70    1.03
  -4  11  -4   -0.63    1.08
   4  11   4    1.93    0.91
   4  11   4    0.02    1.12
  -4  11  -4    0.46    0.55
   3 -12  -4    1.02    0.90
   3 -12  -4    1.49    1.21
   3 -12  -4    1.81    0.91
  -3 -12   4    4.48    1.29
  -3  12   4    0.26    0.82
  -3  12   4    2.97    0.73
   2 -12  -4    1.56    1.67
   2 -12  -4    0.95    1.36
   2 -12  -4    0.49    1.34
  -2  12   4    2.86    0.76
  -2  12   4    2.46    0.97
  -2  12   4    3.08    0.87
  -1 -12   4    6.06    1.24
   1 -12  -4    0.97    1.98
   1 -12  -4    3.37    1.35
   1 -12  -4    2.88    1.11
  -1  12   4    5.51    0.93
  -1  12   4    4.94    0.93
   1  12  -4    5.26    0.79
  -1  12   4    4.94    1.12
   0 -12   4    1.19    1.02
   0 -12   4    2.32    1.01
   0 -12  -4    1.46    0.91
   0  12   4    0.82    0.68
   0  12   4    1.62    0.89
   0  12  -4    1.55    0.70
   0  12  -4    1.15    0.62
  -1 -12  -4    3.36    1.02
   1 -12   4    5.15    2.11
   1 -12   4    4.89    1.03
   1 -12   4    3.87    1.28
   1  12   4    3.37    1.12
  -1  12  -4    3.93    0.76
   1  12   4    3.41    0.76
  -1  12  -4    4.92    0.85
   1  12   4    4.91    0.74
   2 -12   4    0.97    1.06
  -2 -12  -4    2.67    1.22
   2 -12   4    2.62    1.62
  -2 -12  -4    2.66    2.18
  -2  12  -4    2.45    0.70
   2  12   4    3.16    1.04
   2  12   4   -1.95    2.88
   3 -12   4    1.51    0.77
  -3 -12  -4    2.85    1.19
   3 -12   4    2.70    1.24
   3 -12   4    0.66    0.87
  -3 -12  -4    1.84    0.94
   3  12   4    6.56    2.05
  -3  12  -4    2.61    0.84
  -3  12  -4    3.65    1.25
   3  12   4    4.70    1.03
  -2 -13   4    6.81    1.30
  -2  13   4    4.61    0.87
  -2  13   4    4.84    0.70
  -2  13   4    4.03    0.77
  -1 -13   4    2.55    0.92
   1 -13  -4    3.49    1.00
  -1  13   4    4.74    1.16
  -1  13   4    4.97    1.03
   1  13  -4    6.47    0.82
  -1  13   4    4.13    0.78
   0 -13  -4    1.36    0.88
   0 -13  -4    2.28    0.82
   0 -13   4    2.59    0.91
   0 -13   4    2.50    1.01
   0  13   4    3.40    1.02
   0  13   4    3.87    0.68
   0  13   4    2.04    0.70
   0  13  -4    2.67    0.79
   0  13  -4    2.15    0.67
  -1 -13  -4    3.52    1.06
   1 -13   4    4.09    0.76
  -1 -13  -4    5.98    1.02
   1 -13   4    4.24    1.08
   1  13   4    6.73    1.71
  -1  13  -4    5.75    0.83
  -1  13  -4    7.24    0.97
   1  13   4    5.16    0.79
   2 -13   4    4.74    1.07
   2 -13   4    8.23    1.96
  -2 -13  -4    4.50    1.10
   2 -13   4    4.33    0.84
  -2  13  -4    6.35    0.88
   2  13   4    4.75    1.06
   2  13   4    8.35    1.19
  -2  13  -4    6.10    0.83
   7   0  -5    6.24    1.19
   7   0  -5    6.93    1.03
   7   0  -5    8.33    1.22
   7   0  -5    6.44    1.06
  -7   0   5    8.20    0.98
   6   0  -5   27.30    3.12
  -6   0   5   25.50    2.34
   6   0  -5   24.19    2.30
   6   0  -5   27.59    2.72
   6   0  -5   24.31    2.35
   6   0  -5   26.14    2.85
   5   0  -5    5.28    1.30
   5   0  -5    2.68    0.75
   5   0  -5    3.39    0.94
  -5   0   5    3.85    0.83
   5   0  -5    2.98    1.04
   5   0  -5    5.72    1.72
   5   0  -5    2.85    1.60
   5   0  -5    1.95    1.16
   4   0  -5   55.16    5.24
  -4   0   5   57.27    4.61
   4   0  -5   59.01    4.55
   4   0  -5   57.60    4.52
   4   0  -5   58.72    4.49
  -4   0   5   52.70    4.47
   4   0  -5   64.48    5.34
  -4   0   5   56.24    4.47
  -3   0   5   12.10    1.40
   3   0  -5   11.33    1.80
   3   0  -5    9.41    1.35
   3   0  -5   10.86    1.42
   3   0  -5   11.67    1.65
   3   0  -5   12.96    1.62
   3   0  -5   12.30    1.57
   3   0  -5   12.86    1.96
  -3   0   5   10.84    1.32
  -2   0   5   36.53    2.69
  -2   0   5   35.39    2.69
  -2   0   5   32.87    2.74
   2   0  -5   33.57    4.71
  -2   0   5   27.08    3.96
  -1   0   5    0.93    0.66
  -1   0   5    1.49    0.58
  -1   0   5    1.84    0.48
  -1   0   5    1.38    0.87
   1   0  -5    0.59    1.05
   1   0  -5    0.87    1.13
   1   0  -5    2.23    0.78
   0   0  -5   11.18    1.15
   0   0  -5    9.12    1.14
   0   0   5    9.41    1.27
   0   0   5    8.83    0.97
   0   0  -5    7.05    1.06
   0   0  -5    8.19    1.25
   0   0  -5    6.15    1.94
   0   0   5    8.48    1.07
  -1   0  -5    2.71    0.74
   1   0   5    1.30    0.49
  -1   0  -5    2.23    0.55
   1   0   5    1.88    0.69
  -1   0  -5    2.28    1.58
   1   0   5    3.45    0.81
  -1   0  -5    1.80    0.69
   1   0   5    0.93    0.45
  -1   0  -5    0.28    0.61
  -2   0  -5   40.51    3.48
   2   0   5   52.42    3.71
  -2   0  -5   47.12    3.69
  -2   0  -5   45.95    3.66
  -2   0  -5   41.85    3.48
  -2   0  -5   39.46    3.57
  -2   0  -5   47.61    5.04
  -3   0  -5   10.27    1.11
  -3   0  -5    9.47    1.42
   3   0   5    6.92    1.28
  -3   0  -5    7.30    1.11
   3   0   5    7.00    1.35
   3   0   5    9.62    1.65
  -3   0  -5   10.28    1.40
  -3   0  -5    8.09    1.39
  -3   0  -5   10.61    1.14
  -4   0  -5   53.82    4.44
  -4   0  -5   56.33    4.49
  -4   0  -5   48.75    4.28
  -4   0  -5   52.76    6.70
  -4   0  -5   52.83    4.27
   4   0   5   50.68    4.87
  -4   0  -5   56.46    4.76
   4   0   5   58.25    4.54
  -4   0  -5   56.59    4.60
   4   0   5   61.72    4.71
   5   0   5    6.14    1.36
  -5   0  -5    6.38    1.25
   5   0   5    4.73    1.21
  -5   0  -5    4.73    0.84
   5   0   5    4.99    1.59
   5   0   5    7.73    1.21
  -5   0  -5    1.72    4.12
   5   0   5    3.81    1.46
  -5   0  -5    3.36    1.11
   6   0   5    6.54    1.58
   6   0   5    8.77    1.43
   6   0   5    7.05    1.62
  -7   0  -5    5.69    1.35
   7   0   5    5.83    1.29
   7   0   5    5.48    1.40
  -7   0  -5    6.81    0.98
   7   0   5    4.11    1.67
  -7  -1   5    3.00    0.93
   7  -1  -5    3.59    0.97
   7  -1  -5    1.64    0.96
   7  -1  -5    1.06    0.68
   7  -1  -5    2.62    0.99
   7   1  -5    1.90    1.09
   7   1  -5    3.97    1.06
   7   1  -5    3.51    0.90
  -7   1   5    3.46    0.80
   6  -1  -5   27.20    3.45
   6  -1  -5   23.46    2.94
   6  -1  -5   23.39    2.23
  -6  -1   5   25.92    2.24
   6  -1  -5   22.09    2.78
   6  -1  -5   23.63    2.64
   6  -1  -5   23.77    2.61
   6  -1  -5   23.84    2.19
   6   1  -5   22.38    2.73
   6   1  -5   21.69    2.66
   6   1  -5   22.66    2.17
  -6   1   5   26.26    2.16
   6   1  -5   21.37    2.50
   6   1  -5   24.18    2.12
   6   1  -5   23.20    2.48
  -5  -1   5    9.53    1.38
   5  -1  -5    7.37    1.10
   5  -1  -5    6.40    1.01
  -5  -1   5    9.46    1.33
   5  -1  -5    6.75    1.40
  -5  -1   5    6.48    0.96
   5  -1  -5    4.68    1.42
   5  -1  -5    4.39    1.18
   5  -1  -5    5.72    1.43
  -5   1   5    7.21    1.02
   5   1  -5    9.66    1.26
   5   1  -5    5.77    1.28
   5   1  -5   10.18    1.94
   5   1  -5    5.56    1.40
   5   1  -5    7.25    1.04
  -5   1   5    9.15    1.36
   5   1  -5    5.89    1.42
   4  -1  -5   16.31    1.76
  -4  -1   5   15.36    1.63
   4  -1  -5   16.62    1.80
  -4  -1   5   16.17    1.60
  -4  -1   5   16.60    1.84
  -4   1   5   15.14    1.58
   4   1  -5   17.98    1.65
   4   1  -5   11.43    2.45
   4   1  -5   19.19    1.77
   4   1  -5   17.12    2.66
  -4   1   5   16.87    1.75
  -4   1   5   15.56    1.65
  -3  -1   5    4.92    0.93
   3  -1  -5    5.25    0.90
   3  -1  -5    7.07    0.94
  -3  -1   5    6.64    0.95
   3  -1  -5    5.20    1.09
   3  -1  -5    7.51    0.95
   3  -1  -5    4.03    1.01
   3  -1  -5    7.97    1.51
   3  -1  -5    4.21    0.85
  -3  -1   5    5.57    0.82
   3  -1  -5    2.80    1.12
   3   1  -5    5.25    0.94
  -3   1   5    4.70    1.05
   3   1  -5    4.51    1.05
   3   1  -5    4.09    0.76
  -3   1   5    3.94    0.78
   3   1  -5    5.24    1.30
  -3   1   5    2.43    1.27
   3   1  -5    4.37    1.06
   2  -1  -5    5.43    1.45
   2  -1  -5    6.89    0.99
  -2  -1   5    6.09    0.94
  -2  -1   5    6.47    0.94
  -2  -1   5    6.70    1.00
   2   1  -5    7.16    1.03
  -2   1   5    5.77    0.94
  -2   1   5    6.72    1.00
  -2   1   5    6.27    0.84
  -1  -1   5   81.26    7.43
  -1  -1   5   80.87    6.17
   1  -1  -5   92.70    6.28
  -1  -1   5   65.95    6.27
   1  -1  -5   90.89    7.54
   1  -1  -5   77.26    6.80
  -1  -1   5   86.30    6.26
   1   1  -5   93.48    6.78
  -1   1   5   87.83    6.70
  -1   1   5   91.16    6.85
  -1   1   5   83.52    6.67
   1   1  -5   92.53    6.88
   1   1  -5   85.63    8.05
   0  -1  -5  142.28   12.63
   0  -1   5  159.99   11.66
   0  -1   5  152.83   11.53
   0  -1  -5  162.55   11.64
   0  -1  -5  161.21   11.53
   0  -1  -5  157.80   11.59
   0  -1  -5  130.57   11.53
   0  -1  -5  155.85   12.87
   0  -1   5  176.68   12.65
   0   1   5  157.55   11.78
   0   1   5  153.35   11.72
   0   1  -5  157.10   11.71
   0   1  -5  167.85   12.97
   0   1  -5  157.40   11.79
   0   1   5  159.52   11.86
   0   1  -5  154.47   13.04
  -1  -1  -5   88.22    6.98
   1  -1   5   98.69    7.09
  -1  -1  -5   92.23    6.93
  -1  -1  -5   89.70    6.91
  -1  -1  -5  102.33    8.49
   1  -1   5   94.51    7.19
  -1  -1  -5   93.53    7.78
   1  -1   5   82.58    7.09
   1  -1   5   90.49    7.67
   1   1   5   93.72    7.02
  -1   1  -5   94.62    6.98
  -1   1  -5   89.30    6.96
  -1   1  -5  102.01    8.83
  -1   1  -5   84.38    6.85
   1   1   5   88.34    6.93
   2  -1   5    2.41    0.98
   2  -1   5    3.50    0.87
  -2  -1  -5    3.00    0.58
  -2  -1  -5    3.80    0.94
  -2  -1  -5    1.58    1.63
  -2  -1  -5    2.75    0.79
  -2   1  -5    4.25    0.88
  -2   1  -5    5.56    0.93
  -2   1  -5    4.00    0.62
   2   1   5    3.07    0.89
  -2   1  -5    4.34    0.65
  -2   1  -5    2.94    1.61
  -3  -1  -5    6.77    2.10
   3  -1   5    7.36    1.90
  -3  -1  -5    8.77    1.52
  -3  -1  -5    8.28    1.12
  -3  -1  -5    7.49    1.06
  -3  -1  -5    6.93    0.99
   3  -1   5    8.06    1.33
   3  -1   5   11.69    1.69
   3  -1   5    7.64    1.64
   3   1   5    4.25    1.89
  -3   1  -5    8.21    1.26
   3   1   5    8.22    1.31
  -3   1  -5    4.69    1.08
  -3   1  -5    7.94    0.99
  -3   1  -5    5.88    0.99
   3   1   5    7.28    1.60
  -3   1  -5    8.24    1.26
  -3   1  -5    5.13    2.01
  -3   1  -5    9.02    1.44
   4  -1   5   20.00    2.37
  -4  -1  -5   16.05    3.38
  -4  -1  -5   18.02    2.36
   4  -1   5   18.04    2.57
  -4  -1  -5   12.49    2.01
  -4  -1  -5   17.05    1.70
  -4  -1  -5   16.35    1.64
  -4  -1  -5   18.39    2.02
  -4   1  -5   17.12    2.31
  -4   1  -5   17.24    1.69
  -4   1  -5   16.60    2.13
  -4   1  -5   18.58    2.96
  -4   1  -5   17.54    1.72
   4   1   5   16.80    2.64
   4   1   5   18.03    2.29
   4   1   5   16.78    2.62
  -4   1  -5   21.00    2.04
  -4   1  -5   15.00    3.45
  -5  -1  -5    7.29    1.17
  -5  -1  -5    4.96    3.31
  -5  -1  -5    9.25    1.50
   5  -1   5    5.62    1.30
   5  -1   5    6.48    1.39
   5  -1   5    7.20    1.79
   5  -1   5   10.87    1.69
   5  -1   5    7.98    1.24
  -5  -1  -5    9.64    1.30
  -5  -1  -5   10.75    1.54
  -5   1  -5    7.56    1.13
   5   1   5    9.38    1.78
  -5   1  -5    9.42    1.39
  -5   1  -5    6.27    1.29
   5   1   5    5.68    1.29
   5   1   5   10.21    1.80
   6  -1   5   21.38    2.62
   6  -1   5   22.63    2.60
   6  -1   5   20.51    2.52
  -6  -1  -5   27.55    2.50
  -6  -1  -5   24.91    2.21
  -6  -1  -5   22.77    2.09
   6  -1   5   23.69    2.75
   6   1   5   16.90    2.38
   6   1   5   17.85    2.31
  -6   1  -5   24.42    1.94
   6   1   5   21.13    2.35
   6   1   5   22.06    2.53
  -6   1  -5   21.93    2.27
  -7  -1  -5    3.72    1.06
   7  -1   5    1.35    1.13
   7  -1   5    1.15    0.81
  -7  -1  -5    1.49    0.71
   7  -1   5    1.97    1.21
  -7  -1  -5    2.15    0.62
   7  -1   5    2.63    1.14
  -7   1  -5    0.72    0.88
   7   1   5    2.73    1.46
   7   1   5    3.03    1.19
   7   1   5    2.90    1.23
  -7   1  -5    5.37    1.57
  -7   1  -5    2.34    0.62
   7   1   5    1.23    0.91
   7  -2  -5    6.41    1.25
   7  -2  -5   11.04    1.92
   7  -2  -5   10.42    1.13
   7  -2  -5    8.83    1.18
   7   2  -5    9.91    1.77
   7   2  -5   11.06    1.21
   7   2  -5    8.65    1.61
   7   2  -5    9.79    1.26
   6  -2  -5   16.39    2.30
   6  -2  -5   14.62    2.19
  -6  -2   5   16.08    1.72
   6  -2  -5   14.21    1.59
   6  -2  -5   13.13    2.13
   6  -2  -5   14.01    1.67
  -6   2   5   16.47    1.59
   6   2  -5   13.42    1.58
   6   2  -5   11.97    1.55
   6   2  -5   14.32    2.11
   6   2  -5   13.89    1.95
  -6   2   5   12.97    1.66
   6   2  -5   13.85    2.16
   6   2  -5   13.05    1.90
  -5  -2   5   19.50    1.95
   5  -2  -5   25.15    2.68
   5  -2  -5   17.76    2.57
  -5  -2   5   22.44    2.46
  -5  -2   5   21.06    2.01
   5  -2  -5   22.29    2.06
   5  -2  -5   15.16    2.75
   5  -2  -5   23.17    2.58
   5  -2  -5   24.81    2.65
   5  -2  -5   21.03    2.09
   5   2  -5   21.09    2.18
   5   2  -5   20.74    3.00
  -5   2   5   23.59    2.18
  -5   2   5   20.98    2.35
   5   2  -5   21.02    3.22
  -5   2   5   23.74    2.09
   5   2  -5   29.01    2.67
   5   2  -5   24.49    2.64
   5   2  -5   22.50    2.11
  -4  -2   5    0.91    0.65
   4  -2  -5    1.55    0.76
   4  -2  -5    0.05    1.17
   4  -2  -5    1.28    0.74
  -4  -2   5    1.25    1.78
  -4  -2   5    1.56    0.98
   4  -2  -5    3.35    1.34
   4  -2  -5    2.25    1.14
   4  -2  -5    2.27    0.74
   4  -2  -5    1.84    0.84
   4  -2  -5   -0.19    2.13
  -4  -2   5    1.63    0.65
   4   2  -5   -0.13    1.57
   4   2  -5    2.18    1.13
   4   2  -5    1.78    1.13
  -4   2   5    2.32    0.64
   4   2  -5    1.54    0.96
  -4   2   5    2.82    0.68
  -4   2   5    1.98    0.88
   4   2  -5    2.29    1.11
   3  -2  -5   20.90    1.86
   3  -2  -5   14.63    2.17
   3  -2  -5   20.42    1.96
   3  -2  -5   14.68    2.19
   3  -2  -5   19.40    3.78
   3  -2  -5   20.66    1.99
   3  -2  -5   16.91    2.25
   3  -2  -5   21.79    2.59
  -3  -2   5   22.61    1.97
  -3  -2   5   18.46    3.66
  -3   2   5   17.37    3.81
  -3   2   5   21.58    1.79
   3   2  -5   21.41    2.23
  -3   2   5   20.19    1.87
   3   2  -5   15.34    1.93
   3   2  -5   21.97    1.99
   3   2  -5   20.70    2.15
   3   2  -5   22.03    2.29
   3   2  -5   18.99    1.95
  -2  -2   5   30.01    2.47
  -2  -2   5   28.67    2.43
  -2  -2   5   29.99    2.59
   2  -2  -5   36.30    2.58
   2  -2  -5   27.22    2.70
   2  -2  -5   30.10    4.28
   2  -2  -5   32.25    2.63
  -2  -2   5   23.56    3.96
   2   2  -5   29.31    2.74
  -2   2   5   30.30    2.42
  -2   2   5   28.58    2.48
  -2   2   5   30.09    2.44
  -1  -2   5   31.29    2.64
  -1  -2   5   34.32    2.74
  -1  -2   5   34.24    2.79
   1  -2  -5   33.71    4.32
   1  -2  -5   33.04    2.80
  -1  -2   5   34.25    4.09
   1   2  -5   32.11    2.69
   1   2  -5   34.06    2.52
  -1   2   5   29.80    2.70
   1   2  -5   30.57    4.53
   1   2  -5   32.47    2.62
   1   2  -5   31.59    4.19
  -1   2   5   29.94    2.57
  -1   2   5   30.05    2.52
  -1   2   5   31.36    2.54
   0  -2  -5   13.71    1.45
   0  -2  -5   13.49    1.34
   0  -2   5   12.36    1.21
   0  -2  -5   10.64    2.65
   0  -2   5   13.96    1.66
   0  -2   5   14.37    1.49
   0  -2  -5   13.95    1.60
   0  -2   5   13.61    1.56
   0  -2   5   12.99    2.80
   0   2   5   13.05    1.53
   0   2   5   13.20    1.23
   0   2  -5   12.13    1.34
   0   2  -5   13.04    1.23
   0   2  -5   12.68    1.44
   1  -2   5   33.86    3.33
   1  -2   5   33.91    3.04
  -1  -2  -5   32.77    2.65
  -1  -2  -5   32.53    4.16
  -1  -2  -5   33.34    2.65
  -1  -2  -5   32.52    2.77
  -1   2  -5   34.08    4.29
   1   2   5   28.84    2.52
   1   2   5   27.07    2.79
  -1   2  -5   30.68    2.48
   1   2   5   31.05    2.69
  -1   2  -5   36.00    4.84
  -1   2  -5   34.49    2.66
  -1   2  -5   30.76    2.50
  -2  -2  -5   36.44    3.03
  -2  -2  -5   41.89    4.70
  -2  -2  -5   40.48    3.25
   2  -2   5   42.83    3.63
   2  -2   5   36.98    3.44
  -2  -2  -5   39.74    3.27
   2  -2   5   43.15    3.27
  -2  -2  -5   34.64    3.15
  -2  -2  -5   35.00    3.11
  -2  -2  -5   34.59    3.14
  -2   2  -5   33.08    2.76
  -2   2  -5   37.13    4.38
   2   2   5   40.71    3.09
  -2   2  -5   31.00    2.75
  -2   2  -5   33.63    2.90
   3  -2   5   17.69    2.36
  -3  -2  -5   21.71    2.03
   3  -2   5   19.40    2.31
  -3  -2  -5   21.41    1.85
   3  -2   5   19.02    2.54
  -3  -2  -5   20.58    2.02
   3  -2   5   22.55    2.99
  -3  -2  -5   19.85    2.11
  -3  -2  -5   18.48    2.23
   3   2   5   17.98    2.34
   3   2   5   18.29    2.19
   3   2   5   22.31    2.80
  -3   2  -5   20.37    2.04
   3   2   5   17.85    2.98
  -3   2  -5   19.19    1.96
  -3   2  -5   18.15    2.10
  -3   2  -5   19.21    1.72
  -3   2  -5   16.20    3.31
  -3   2  -5   22.36    2.00
  -4  -2  -5    1.46    1.00
  -4  -2  -5    1.46    0.54
  -4  -2  -5    1.77    0.69
  -4  -2  -5   -0.02    2.08
   4  -2   5    1.01    1.45
  -4  -2  -5    0.77    1.49
  -4  -2  -5    0.82    0.88
   4   2   5    0.60    0.84
   4   2   5   -0.20    1.40
  -4   2  -5    1.31    0.94
  -4   2  -5    1.42    0.56
  -4   2  -5    1.56    0.62
  -4   2  -5    4.73    2.15
  -4   2  -5    2.83    1.15
  -4   2  -5    1.22    1.42
  -4   2  -5    1.59    0.98
   4   2   5   -0.70    2.31
   5  -2   5    7.19    1.55
  -5  -2  -5   12.62    2.31
   5  -2   5    8.32    1.59
   5  -2   5    8.67    1.75
   5  -2   5    8.66    1.60
   5   2   5   11.46    1.81
  -5   2  -5   14.43    1.90
   5   2   5    9.23    1.72
  -5   2  -5   11.63    3.00
   5   2   5    9.70    1.61
  -6  -2  -5    7.59    1.46
   6  -2   5    8.27    1.49
   6  -2   5   10.13    1.83
  -6  -2  -5   12.90    1.75
  -6  -2  -5   10.39    1.24
   6  -2   5    8.61    1.54
   6   2   5   11.08    1.75
   6   2   5    9.23    1.59
   6   2   5    7.49    1.45
   6   2   5    6.74    0.85
   6   2   5    6.36    1.28
  -7  -2  -5   12.24    1.84
  -7  -2  -5    8.94    1.10
  -7  -2  -5   10.66    1.45
   7  -2   5    9.05    1.47
   7  -2   5    8.32    1.53
  -7   2  -5    7.78    1.18
  -7   2  -5    7.47    1.03
   7   2   5    4.87    1.05
   7   2   5    8.31    1.38
   7  -3  -5   10.97    1.39
   7  -3  -5   10.82    2.05
   7  -3  -5   13.09    1.32
  -7  -3   5   14.80    1.43
  -7  -3   5   16.52    1.73
   7   3  -5   10.27    1.81
   7   3  -5   12.21    1.32
   7   3  -5   13.67    1.69
   7   3  -5   11.14    1.37
   6  -3  -5    4.47    0.85
   6  -3  -5    4.14    0.92
   6  -3  -5    3.71    1.37
   6  -3  -5    6.09    1.58
   6  -3  -5    4.82    1.22
   6   3  -5    4.83    0.89
   6   3  -5    4.81    1.25
  -6   3   5    5.42    0.97
   6   3  -5    4.67    0.88
   6   3  -5    5.46    1.33
  -5  -3   5   28.97    2.79
   5  -3  -5   24.46    2.91
   5  -3  -5   22.99    2.85
  -5  -3   5   24.50    2.19
  -5  -3   5   19.80    5.58
   5  -3  -5   25.63    2.33
   5  -3  -5   25.62    2.26
   5  -3  -5   22.29    2.75
   5   3  -5   24.71    3.21
   5   3  -5   27.81    2.78
  -5   3   5   26.69    2.70
   5   3  -5   26.34    2.34
   5   3  -5   24.97    2.82
   5   3  -5   25.40    2.85
   5   3  -5   25.66    2.41
  -5   3   5   29.66    2.41
  -4  -3   5   10.39    2.47
   4  -3  -5    8.94    1.64
   4  -3  -5    7.83    1.12
   4  -3  -5    7.67    1.12
   4  -3  -5    6.08    1.54
  -4  -3   5    7.17    1.15
   4  -3  -5    8.12    2.71
   4  -3  -5    7.90    1.41
   4  -3  -5    7.56    1.65
  -4  -3   5    9.19    1.11
  -4   3   5   11.88    1.29
   4   3  -5    8.51    1.27
   4   3  -5   10.58    1.75
   4   3  -5    6.82    1.13
  -4   3   5    8.10    1.17
   4   3  -5    7.41    1.46
   4   3  -5   10.18    1.78
  -4   3   5   10.23    1.32
  -4   3   5    7.68    2.81
   3  -3  -5    0.64    1.46
   3  -3  -5    0.83    0.76
   3  -3  -5    0.96    0.69
  -3  -3   5   -0.59    1.21
  -3  -3   5    1.41    0.60
   3  -3  -5    1.54    0.73
   3  -3  -5    2.53    1.37
  -3  -3   5    1.12    0.84
   3  -3  -5    2.72    1.16
   3  -3  -5    1.44    0.76
  -3  -3   5    1.23    0.61
  -3   3   5    1.73    0.60
  -3   3   5    1.04    0.68
   3   3  -5    1.78    1.14
   3   3  -5    1.02    0.86
   3   3  -5   -0.02    0.76
   3   3  -5   -0.19    1.00
   3   3  -5    1.47    0.78
   2  -3  -5   48.49    3.75
  -2  -3   5   40.15    7.66
  -2  -3   5   44.51    3.52
  -2  -3   5   43.07    3.66
  -2  -3   5   45.46    3.57
   2  -3  -5   49.94    3.60
   2  -3  -5   42.98    5.44
   2  -3  -5   45.64    3.69
   2  -3  -5   35.05    3.61
   2  -3  -5   51.38    4.19
  -2   3   5   40.30    3.32
   2   3  -5   40.34    3.63
  -2   3   5   39.44    3.48
   2   3  -5   49.34    3.38
  -2   3   5   41.61    3.35
  -1  -3   5   40.90    3.38
  -1  -3   5   39.20    4.83
  -1  -3   5   40.20    3.47
   1  -3  -5   41.84    3.36
  -1  -3   5   45.53    3.27
   1  -3  -5   41.54    4.92
  -1  -3   5   41.10    3.28
  -1   3   5   42.07    3.34
  -1   3   5   40.99    3.20
   1   3  -5   42.43    3.27
  -1   3   5   42.38    3.19
  -1   3   5   41.42    3.27
   1   3  -5   41.69    3.39
   1   3  -5   35.78    4.90
   1   3  -5   38.48    5.37
   1   3  -5   38.31    3.11
   0  -3  -5   36.99    4.38
   0  -3   5   41.78    3.23
   0  -3   5   35.41    4.53
   0  -3   5   42.40    3.31
   0  -3   5   29.75    3.03
   0  -3  -5   40.90    3.12
   0  -3  -5   40.21    3.67
   0  -3   5   36.63    3.15
   0  -3  -5   37.41    3.05
   0   3  -5   34.89    4.97
   0   3  -5   41.43    3.25
   0   3  -5   38.10    3.09
   0   3   5   38.28    3.05
   0   3  -5   37.53    3.04
   0   3   5   40.82    3.24
   0   3  -5   41.27    4.72
   0   3   5   38.73    3.16
   0   3   5   40.16    3.09
  -1  -3  -5   40.25    5.08
  -1  -3  -5   39.54    4.80
   1  -3   5   38.27    3.47
  -1  -3  -5   44.90    3.53
  -1  -3  -5   40.84    3.43
  -1  -3  -5   42.11    3.28
  -1  -3  -5   45.69    3.34
   1  -3   5   45.20    3.79
   1   3   5   37.87    3.41
  -1   3  -5   43.96    3.41
   1   3   5   40.27    3.32
  -1   3  -5   42.29    3.26
  -1   3  -5   42.47    3.24
  -1   3  -5   42.11    4.95
   1   3   5   40.99    3.22
  -2  -3  -5   57.40    4.39
  -2  -3  -5   49.33    4.23
   2  -3   5   52.49    4.68
  -2  -3  -5   54.76    5.93
  -2  -3  -5   54.80    4.36
  -2  -3  -5   49.99    4.14
  -2  -3  -5   54.01    6.82
   2  -3   5   50.03    5.55
   2  -3   5   59.70    4.34
   2   3   5   59.59    4.25
  -2   3  -5   55.27    4.23
  -2   3  -5   47.88    5.47
  -2   3  -5   47.66    3.99
   2   3   5   55.27    4.03
   2   3   5   56.08    4.47
  -2   3  -5   45.98    3.98
   2   3   5   44.66    4.20
  -3  -3  -5    0.67    1.65
   3  -3   5    1.26    1.24
  -3  -3  -5    1.08    0.76
  -3  -3  -5    1.27    0.52
  -3  -3  -5    1.24    0.56
   3  -3   5    0.61    1.06
  -3  -3  -5    2.39    0.77
   3  -3   5    1.36    1.22
   3  -3   5    1.22    0.95
  -3  -3  -5    1.02    0.95
   3  -3   5    0.94    1.52
  -3   3  -5   -2.26    2.25
   3   3   5   -1.41    1.50
  -3   3  -5    0.64    0.74
   3   3   5    1.10    1.07
   3   3   5    1.78    1.13
  -3   3  -5    0.95    0.56
  -3   3  -5    1.10    1.81
  -3   3  -5    2.10    0.82
   4  -3   5    3.44    1.50
   4  -3   5    3.42    0.97
  -4  -3  -5    6.34    1.81
  -4  -3  -5    6.19    0.98
  -4  -3  -5    5.90    0.91
   4  -3   5    7.24    1.48
   4  -3   5    5.68    1.60
  -4  -3  -5    4.86    1.29
  -4   3  -5    4.19    1.54
  -4   3  -5    6.16    0.97
  -4   3  -5    7.50    1.13
  -4   3  -5    1.80    4.03
   4   3   5    7.25    1.71
  -4   3  -5    7.78    1.27
  -4   3  -5    6.36    1.06
  -4   3  -5    2.07    2.39
   4   3   5    3.98    1.46
  -4   3  -5    4.42    1.14
  -5  -3  -5   20.27    2.71
   5  -3   5   22.59    2.54
  -5  -3  -5   17.25    2.21
   5  -3   5   17.72    2.67
   5  -3   5   19.97    2.59
   5  -3   5   21.85    2.75
  -5  -3  -5   23.07    2.02
  -5  -3  -5   20.61    2.12
  -5   3  -5   22.88    3.00
  -5   3  -5   19.94    2.41
  -5   3  -5   24.12    2.01
   5   3   5   18.67    2.62
   5   3   5   17.75    2.60
   5   3   5   19.80    2.15
  -6  -3  -5    3.30    0.77
  -6  -3  -5    4.11    0.90
   6  -3   5    2.63    1.17
   6  -3   5    4.12    1.32
   6  -3   5    4.14    1.33
   6  -3   5    2.99    1.59
  -6   3  -5    4.91    0.83
   6   3   5    1.15    0.82
   6   3   5    3.45    0.69
   6   3   5    2.17    1.09
   6   3   5    6.26    1.59
  -6   3  -5    2.73    0.60
   6   3   5    1.50    0.96
  -7  -3  -5    2.90    0.67
   7  -3   5    2.95    0.99
   7  -3   5    3.47    0.92
   7  -3   5    5.44    1.30
   7  -3   5    3.88    0.87
   7   3   5    3.87    1.00
   7  -4  -5    4.13    0.67
   7  -4  -5    5.51    1.11
   7  -4  -5    5.33    0.71
   7   4  -5    4.89    0.99
   7   4  -5    7.76    0.99
   7   4  -5    5.17    0.84
  -6  -4   5    1.77    0.89
   6  -4  -5    4.20    1.44
   6  -4  -5    2.64    1.10
  -6  -4   5    2.48    0.78
   6  -4  -5    2.77    0.75
   6  -4  -5    2.06    0.69
   6   4  -5    1.36    1.21
  -6   4   5    0.95    0.77
   6   4  -5    1.76    0.68
   6   4  -5    3.08    1.03
   6   4  -5    2.81    1.16
   6   4  -5    1.75    0.74
   5  -4  -5    1.67    1.18
  -5  -4   5    4.26    1.81
   5  -4  -5    1.35    0.82
   5  -4  -5    2.70    0.86
  -5  -4   5    3.22    0.79
  -5  -4   5    2.08    0.80
  -5  -4   5    1.29    2.34
   5  -4  -5    1.91    1.43
   5  -4  -5    1.45    2.20
   5   4  -5    2.22    0.72
   5   4  -5    1.55    0.91
   5   4  -5    3.01    1.29
  -5   4   5    3.58    0.78
   5   4  -5    1.32    0.65
  -5   4   5    1.84    0.83
  -4  -4   5   18.38    1.75
   4  -4  -5   16.18    1.84
   4  -4  -5   18.49    1.80
  -4  -4   5   18.88    1.85
   4  -4  -5   14.90    2.34
  -4  -4   5   10.52    3.19
   4  -4  -5   17.47    2.38
   4   4  -5   16.56    2.16
   4   4  -5   17.64    1.74
  -4   4   5   14.52    1.70
  -4   4   5   18.13    2.28
   4   4  -5   16.01    2.06
   4   4  -5   19.62    2.34
  -3  -4   5   17.42    2.14
   3  -4  -5   19.04    2.03
   3  -4  -5   20.87    1.98
   3  -4  -5   20.66    2.63
   3  -4  -5   20.21    1.94
  -3  -4   5   19.94    1.82
   3  -4  -5   22.38    2.48
   3   4  -5   15.83    2.27
  -3   4   5   21.14    1.84
   3   4  -5   20.24    1.99
  -3   4   5   18.87    1.78
  -3   4   5   14.59    2.06
  -3   4   5   19.56    1.86
   3   4  -5   18.64    1.91
   3   4  -5   16.31    2.71
  -2  -4   5   61.91    6.66
   2  -4  -5   71.56    5.23
  -2  -4   5   75.23    5.36
   2  -4  -5   69.45    7.40
   2  -4  -5   58.34    5.24
  -2  -4   5   72.48    5.16
  -2  -4   5   70.12    9.11
   2  -4  -5   67.74    5.26
   2  -4  -5   62.99    5.26
   2  -4  -5   67.45    5.56
   2  -4  -5   55.01    5.42
  -2  -4   5   76.08    5.18
  -2   4   5   66.66    5.31
  -2   4   5   72.70    5.42
   2   4  -5   70.18    5.65
   2   4  -5   60.41    5.33
   2   4  -5   78.43    5.70
  -1  -4   5   23.35    1.95
  -1  -4   5   24.12    2.20
   1  -4  -5   21.05    2.15
  -1  -4   5   22.55    2.30
  -1  -4   5   20.96    1.89
   1  -4  -5   24.19    2.56
   1  -4  -5   24.50    2.29
  -1   4   5   21.16    1.88
  -1   4   5   21.01    1.90
  -1   4   5   23.25    2.04
  -1   4   5   20.65    2.02
   1   4  -5   22.86    1.98
   1   4  -5   22.53    1.82
   0  -4  -5   17.17    3.87
   0  -4  -5   20.18    1.95
   0  -4   5   18.93    3.98
   0  -4   5   21.77    1.95
   0  -4   5   17.56    2.12
   0  -4   5   20.24    2.40
   0  -4   5   20.09    4.37
   0  -4   5   21.52    2.19
   0  -4  -5   19.76    1.91
   0   4   5   22.65    1.91
   0   4  -5   20.82    2.06
   0   4  -5   22.92    1.93
   0   4   5   18.42    2.07
   0   4  -5   22.55    1.89
   0   4   5   22.69    2.08
   0   4  -5   23.40    2.17
   0   4  -5   26.70    3.97
   0   4   5   24.42    1.96
  -1  -4  -5   22.98    2.13
  -1  -4  -5   21.99    2.10
  -1  -4  -5   22.60    1.90
  -1  -4  -5   25.50    2.27
   1  -4   5   22.80    2.63
  -1  -4  -5   23.96    2.38
   1  -4   5   22.14    2.16
   1  -4   5   19.55    2.41
  -1  -4  -5   29.90    4.61
   1   4   5   24.28    2.21
  -1   4  -5   24.64    2.19
   1   4   5   23.81    2.23
  -1   4  -5   24.64    3.81
  -1   4  -5   22.75    2.20
   1   4   5   22.03    1.95
  -1   4  -5   15.85    4.43
  -1   4  -5   24.40    2.01
  -2  -4  -5   57.44    4.60
  -2  -4  -5   63.29    4.80
  -2  -4  -5   60.24    4.84
   2  -4   5   58.84    4.77
  -2  -4  -5   60.57    4.55
   2  -4   5   59.68    5.21
  -2  -4  -5   61.53    4.57
   2  -4   5   51.21    4.71
  -2  -4  -5   57.73    4.55
  -2   4  -5   65.35    4.26
   2   4   5   54.75    4.27
  -2   4  -5   59.53    4.36
   2   4   5   47.74    5.48
  -2   4  -5   51.51    5.87
   2   4   5   47.02    4.43
   3  -4   5   19.96    2.54
   3  -4   5   19.00    2.54
  -3  -4  -5   20.45    1.93
  -3  -4  -5   19.62    2.39
   3  -4   5   24.15    2.24
  -3  -4  -5   19.84    2.46
  -3  -4  -5   16.53    4.88
  -3  -4  -5   20.52    2.04
   3  -4   5   21.46    2.22
  -3  -4  -5   21.97    2.00
   3  -4   5   22.79    2.95
   3  -4   5   18.69    2.77
  -3   4  -5   14.56    2.33
   3   4   5   18.48    2.38
   3   4   5   18.77    2.06
   3   4   5   23.48    2.40
  -3   4  -5   21.57    1.87
   3   4   5   22.20    2.27
  -3   4  -5   22.75    4.08
  -3   4  -5   21.44    2.11
   4  -4   5   22.82    3.01
   4  -4   5   17.94    2.68
  -4  -4  -5   18.44    1.90
  -4  -4  -5   23.46    2.24
   4  -4   5   20.36    2.54
   4  -4   5   17.51    2.20
  -4  -4  -5   15.30    2.46
  -4  -4  -5   18.13    1.97
  -4  -4  -5   18.43    3.12
   4  -4   5   18.32    2.94
  -4   4  -5   16.47    1.62
  -4   4  -5   17.75    2.07
  -4   4  -5   17.85    2.44
   4   4   5   13.42    2.11
   4   4   5   17.80    2.09
  -4   4  -5   18.31    1.71
  -4   4  -5   14.66    3.33
  -5  -4  -5    1.66    0.86
  -5  -4  -5    0.54    2.35
  -5  -4  -5    0.92    0.67
   5  -4   5   -0.91    1.16
   5  -4   5    2.10    1.49
   5  -4   5    2.16    1.21
  -5  -4  -5   -1.18    1.59
  -5  -4  -5    1.57    0.69
   5  -4   5    3.51    2.56
  -5   4  -5    1.19    0.62
   5   4   5    0.41    0.80
   5   4   5    0.40    0.94
   5   4   5    0.88    1.20
  -5   4  -5    3.32    1.45
  -5   4  -5   -1.07    3.01
   5   4   5   -1.16    1.33
  -5   4  -5    1.96    0.74
  -5   4  -5    4.69    1.54
  -6  -4  -5    2.47    0.79
  -6  -4  -5    3.46    0.75
   6  -4   5    2.72    1.11
   6  -4   5    4.62    1.39
   6  -4   5    2.25    1.25
   6   4   5    2.18    1.05
  -6   4  -5    2.46    0.76
   6   4   5    1.21    0.69
  -6   4  -5    3.12    0.69
   6   4   5    2.30    1.05
   6   4   5    2.88    0.72
   7  -4   5    1.97    0.89
   7  -4   5    0.83    0.67
  -7  -4  -5    1.90    0.60
   7  -4   5    3.33    0.95
   7   4   5    1.41    0.83
   7  -5  -5    4.25    1.43
   7  -5  -5    2.88    0.63
   7  -5  -5    2.87    0.59
   7   5  -5    3.92    0.83
   7   5  -5    4.05    1.68
   7   5  -5    4.54    0.78
  -6  -5   5    5.75    0.88
  -6  -5   5    4.76    0.89
   6  -5  -5    3.56    1.74
   6  -5  -5    3.05    1.21
   6  -5  -5    3.75    0.81
   6  -5  -5    3.47    0.82
   6   5  -5    5.17    0.89
   6   5  -5    4.23    0.97
   6   5  -5    3.37    0.81
  -6   5   5    6.39    1.06
   6   5  -5    4.32    1.15
   6   5  -5    4.94    1.40
  -5  -5   5    4.13    2.06
   5  -5  -5    0.27    0.73
   5  -5  -5    0.34    1.24
  -5  -5   5    1.10    0.67
   5  -5  -5    0.45    0.77
   5  -5  -5    0.18    1.02
  -5  -5   5    1.68    0.84
  -5  -5   5   -0.89    2.44
   5   5  -5    0.97    1.14
   5   5  -5    0.04    0.68
   5   5  -5   -0.39    1.18
  -5   5   5    1.24    0.71
   5   5  -5    0.02    0.64
  -5   5   5    0.98    0.90
  -5   5   5   -0.64    1.24
   4  -5  -5   11.01    1.84
  -4  -5   5   16.26    2.04
  -4  -5   5   14.43    1.60
   4  -5  -5   11.05    1.79
   4  -5  -5   11.48    1.56
   4  -5  -5   11.49    1.60
   4   5  -5   12.20    1.57
   4   5  -5   13.33    1.91
   4   5  -5   11.18    1.52
  -4   5   5   16.50    1.57
   4   5  -5   17.80    2.24
  -4   5   5   12.53    1.52
   3  -5  -5   12.46    1.61
   3  -5  -5    8.82    1.66
  -3  -5   5    8.78    1.26
  -3  -5   5    7.22    1.20
   3  -5  -5    8.96    1.67
  -3  -5   5    9.15    1.53
   3   5  -5    4.49    2.68
  -3   5   5    7.00    1.09
  -3   5   5    6.56    1.01
   3   5  -5    6.89    1.10
   3   5  -5    4.78    1.30
  -2  -5   5    9.70    1.40
  -2  -5   5    8.72    2.36
  -2  -5   5   10.57    1.24
   2  -5  -5   11.48    2.14
  -2  -5   5    6.40    2.50
   2  -5  -5   11.48    1.42
   2  -5  -5    9.84    1.60
   2  -5  -5   10.55    1.58
  -2  -5   5   12.01    1.22
   2  -5  -5   12.39    1.52
  -2  -5   5    7.79    2.31
   2   5  -5    8.75    1.25
   2   5  -5    2.55    5.01
   2   5  -5   10.08    1.24
   2   5  -5   10.33    1.63
  -2   5   5    7.98    1.20
  -2   5   5    9.75    1.39
  -2   5   5   11.18    1.37
   1  -5  -5   19.92    2.19
   1  -5  -5   21.29    2.06
   1  -5  -5   21.53    2.20
  -1  -5   5   19.68    1.83
   1  -5  -5   18.58    3.98
  -1  -5   5   21.59    2.31
  -1  -5   5   20.32    2.84
   1  -5  -5   24.07    2.88
  -1  -5   5   15.51    2.72
  -1  -5   5   23.65    1.79
  -1  -5   5   19.63    4.00
   1   5  -5   12.49    5.38
  -1   5   5   22.53    1.79
   1   5  -5   17.72    1.86
   1   5  -5   17.25    2.27
  -1   5   5   20.48    1.78
   1   5  -5   19.47    1.78
   1   5  -5   17.89    1.87
  -1   5   5   24.15    2.09
   0  -5  -5    7.42    1.17
   0  -5   5    8.00    1.28
   0  -5   5   12.20    2.25
   0  -5  -5    6.98    1.15
   0  -5  -5    9.34    1.62
   0  -5   5    8.39    1.69
   0  -5  -5    9.07    2.76
   0   5   5    8.14    1.19
   0   5  -5    8.82    0.98
   0   5  -5    5.19    1.98
   0   5   5    6.70    1.18
   0   5   5    6.64    1.03
   0   5  -5    8.32    0.99
   0   5  -5    9.19    1.28
   0   5   5    8.15    1.15
  -1  -5  -5   19.39    1.86
  -1  -5  -5   20.59    2.80
  -1  -5  -5   18.63    1.89
   1  -5   5   18.42    2.21
   1  -5   5   21.39    1.98
   1  -5   5   22.88    2.78
  -1  -5  -5   14.82    1.74
  -1  -5  -5   18.90    2.07
   1  -5   5   18.81    2.42
  -1   5  -5   19.87    1.94
   1   5   5   19.61    2.05
  -1   5  -5   25.66    2.29
   1   5   5   14.73    1.91
   1   5   5   19.54    1.92
   1   5   5   20.17    2.01
  -1   5  -5   20.69    1.80
  -1   5  -5   15.45    3.19
  -2  -5  -5    7.43    1.61
  -2  -5  -5    9.97    1.63
   2  -5   5    9.39    2.10
  -2  -5  -5    8.44    1.37
   2  -5   5    7.80    1.60
  -2  -5  -5    4.96    2.96
  -2  -5  -5   11.10    1.17
   2  -5   5    7.96    1.92
  -2  -5  -5    9.50    1.09
   2  -5   5   11.73    1.66
   2  -5   5    9.42    1.62
  -2  -5  -5    9.87    1.20
  -2   5  -5   11.75    1.61
  -2   5  -5    6.14    3.65
  -2   5  -5    6.98    2.58
  -2   5  -5   10.67    1.49
  -2   5  -5    9.01    1.14
   2   5   5    7.62    1.67
   3  -5   5   10.08    2.06
   3  -5   5   11.00    1.82
   3  -5   5   12.72    1.64
  -3  -5  -5   10.02    1.25
  -3  -5  -5    7.83    1.27
   3  -5   5   10.79    2.34
  -3  -5  -5   10.75    1.95
  -3   5  -5    8.60    1.33
   3   5   5   10.72    1.63
  -3   5  -5    9.75    1.40
  -3   5  -5    7.27    1.16
  -3   5  -5    2.83    3.76
   3   5   5    8.86    1.80
   3   5   5    8.18    2.17
   3   5   5    8.25    2.07
   3   5   5    8.35    1.05
   4  -5   5    6.55    1.85
   4  -5   5    5.31    1.49
  -4  -5  -5    4.28    1.61
   4  -5   5    5.92    1.59
   4  -5   5    8.37    1.52
   4  -5   5    2.90    1.35
  -4  -5  -5    4.34    2.53
   4  -5   5    5.71    1.00
  -4   5  -5   12.26    1.45
  -4   5  -5    7.09    1.33
  -4   5  -5   11.06    1.28
  -4   5  -5    9.04    1.47
  -5  -5  -5   -3.17    2.78
  -5  -5  -5    0.60    0.74
   5  -5   5   -0.64    1.15
   5  -5   5    0.67    1.41
   5  -5   5    1.50    1.89
   5  -5   5    0.76    1.12
  -5  -5  -5    0.04    0.67
  -5  -5  -5   -1.19    2.64
  -5  -5  -5    0.44    0.63
   5   5   5    0.58    0.77
  -5   5  -5    0.47    0.56
  -5   5  -5    0.40    1.47
  -5   5  -5   -0.17    2.49
   5   5   5    0.87    1.21
  -5   5  -5    0.20    0.70
   5   5   5   -0.08    0.68
   6  -5   5    2.88    1.80
   6  -5   5    1.83    1.12
   6  -5   5    2.49    1.00
  -6  -5  -5    3.31    1.08
  -6  -5  -5    2.64    0.79
  -6  -5  -5    3.32    0.75
  -6   5  -5    3.33    0.62
   6   5   5    2.54    1.08
   6   5   5    4.07    2.12
  -7  -5  -5    2.10    0.97
   7  -5   5    0.85    1.21
   7  -5   5    2.12    1.00
   7  -5   5    2.36    0.72
  -7  -5  -5    3.57    0.78
  -6  -6   5    6.10    0.89
   6  -6  -5    3.66    1.19
   6  -6  -5    4.58    1.27
  -6  -6   5    6.19    0.94
   6   6  -5    4.37    1.38
   6   6  -5    4.25    0.97
   6   6  -5    6.47    0.91
  -5  -6   5    2.38    0.83
   5  -6  -5    3.09    1.25
   5  -6  -5    2.52    0.83
  -5  -6   5    3.69    0.81
   5  -6  -5    1.94    0.83
   5  -6  -5    1.43    1.23
  -5   6   5    1.31    0.67
   5   6  -5    1.93    1.23
   5   6  -5    0.95    0.65
   5   6  -5    0.73    0.80
   5   6  -5    1.24    0.87
  -4  -6   5    3.00    0.77
   4  -6  -5    3.58    0.95
   4  -6  -5    3.03    1.36
  -4  -6   5    7.12    2.02
   4  -6  -5    2.03    0.88
   4  -6  -5    2.04    1.35
   4   6  -5    1.69    0.82
   4   6  -5    2.77    1.41
  -4   6   5    1.39    0.73
  -4   6   5    2.19    1.04
   4   6  -5    0.95    1.00
   4   6  -5    2.62    0.75
   3  -6  -5    8.60    1.21
  -3  -6   5    8.26    1.30
   3  -6  -5    8.17    1.20
   3  -6  -5    7.24    1.87
  -3  -6   5    8.56    1.38
  -3  -6   5    9.46    1.84
   3  -6  -5    9.83    1.65
   3   6  -5    6.34    1.48
   3   6  -5    7.47    1.47
  -3   6   5    8.81    1.12
  -3   6   5    6.57    0.97
   2  -6  -5   17.23    1.87
   2  -6  -5   15.10    1.85
   2  -6  -5   13.72    2.32
  -2  -6   5   16.92    1.65
  -2  -6   5   15.36    1.56
   2  -6  -5   19.68    2.63
   2  -6  -5   16.21    1.79
  -2  -6   5   17.20    1.64
  -2  -6   5   15.37    2.37
  -2  -6   5   20.23    2.94
  -2   6   5   13.86    1.49
  -2   6   5   17.60    1.74
  -2   6   5   12.90    1.51
   2   6  -5   11.51    2.36
   2   6  -5   15.08    1.52
   1  -6  -5    5.55    1.08
  -1  -6   5    6.67    1.66
   1  -6  -5    9.19    1.84
   1  -6  -5    5.03    1.05
   1  -6  -5    7.46    1.11
  -1  -6   5    4.06    1.43
   1  -6  -5    6.71    1.47
   1   6  -5    6.41    1.42
  -1   6   5    4.28    0.78
   1   6  -5    3.09    0.95
  -1   6   5    4.42    1.07
   1   6  -5    1.58    1.63
  -1   6   5    4.84    0.78
   0  -6  -5    3.17    1.06
   0  -6   5    2.73    1.25
   0  -6  -5    2.40    1.01
   0  -6  -5    3.18    1.56
   0  -6   5    1.73    1.39
   0  -6  -5    1.79    0.88
   0  -6  -5    2.90    1.56
   0  -6  -5    5.92    2.42
   0   6   5    2.12    0.71
   0   6  -5    2.21    1.82
   0   6   5    3.52    0.67
   0   6  -5    0.62    1.68
   0   6  -5    2.25    0.70
   0   6  -5    2.31    0.64
   0   6   5    2.21    1.46
   0   6   5    2.23    1.01
   1  -6   5    3.93    1.82
  -1  -6  -5    6.79    1.60
  -1  -6  -5    2.21    2.23
  -1  -6  -5    6.22    1.31
   1  -6   5    5.53    1.68
   1  -6   5    8.32    2.01
  -1  -6  -5    6.19    1.06
  -1  -6  -5    5.95    0.90
   1  -6   5    8.85    1.29
  -1   6  -5    7.90    1.00
  -1   6  -5    5.55    1.21
   1   6   5    8.93    1.09
  -1   6  -5    6.08    0.91
  -1   6  -5    5.12    2.96
   1   6   5   10.44    1.62
   1   6   5    6.29    1.32
   1   6   5    9.20    2.93
   2  -6   5   17.45    1.92
   2  -6   5   12.43    2.11
  -2  -6  -5   16.60    2.18
   2  -6   5   14.45    2.51
  -2  -6  -5   10.75    1.91
  -2  -6  -5   14.26    1.73
  -2  -6  -5   15.61    1.86
   2  -6   5   18.50    2.45
  -2  -6  -5   15.29    1.52
  -2  -6  -5   16.27    1.61
   2  -6   5   13.36    2.83
  -2   6  -5   11.95    1.82
  -2   6  -5   12.80    4.94
  -2   6  -5   14.83    1.49
   2   6   5   14.96    1.39
   2   6   5   13.81    2.02
  -2   6  -5   15.62    1.87
  -2   6  -5    9.19    3.84
   2   6   5   17.33    1.64
  -3  -6  -5    8.22    1.18
   3  -6   5    8.24    1.34
   3  -6   5    9.69    2.31
  -3  -6  -5    2.59    2.13
  -3  -6  -5    7.63    1.04
  -3  -6  -5    3.00    3.08
   3  -6   5    8.24    1.56
  -3  -6  -5    3.40    2.41
   3  -6   5    4.73    1.74
   3  -6   5    7.07    1.77
  -3  -6  -5    8.42    1.31
  -3   6  -5    7.02    3.32
  -3   6  -5    7.39    1.23
  -3   6  -5    9.54    1.32
   3   6   5   11.19    1.51
   3   6   5    7.40    1.05
   4  -6   5    5.11    1.48
  -4  -6  -5    3.11    2.25
  -4  -6  -5    3.37    0.83
   4  -6   5    2.78    1.81
   4  -6   5    2.43    1.40
  -4  -6  -5    3.58    0.81
   4  -6   5    1.90    1.32
   4  -6   5    2.37    1.35
  -4  -6  -5    1.56    4.30
   4   6   5    2.84    1.09
  -4   6  -5    4.07    1.24
  -4   6  -5    3.16    0.84
  -4   6  -5    5.45    5.21
  -4   6  -5    5.26    1.34
   4   6   5    3.88    1.94
   5  -6   5    0.83    1.17
  -5  -6  -5    2.72    0.74
  -5  -6  -5    2.33    1.08
  -5  -6  -5    0.73    0.76
   5  -6   5    3.19    1.47
   5  -6   5    2.07    1.21
   5  -6   5    2.62    2.09
  -5   6  -5    2.34    0.61
   5   6   5    1.78    0.77
  -5   6  -5    4.85    1.24
   5   6   5    2.73    1.74
   6  -6   5    3.24    1.28
   6  -6   5    2.71    1.52
  -6  -6  -5    3.52    0.78
  -6  -6  -5    4.39    1.19
   6   6   5    1.51    1.67
  -6   6  -5    1.93    0.62
   6   6   5    4.38    0.90
   6  -7  -5    5.11    1.30
   6  -7  -5    3.62    0.65
   6  -7  -5    4.34    1.11
  -6  -7   5    4.13    0.74
   6  -7  -5    2.75    0.65
   6   7  -5    5.72    0.96
   6   7  -5    4.53    0.86
   6   7  -5    5.22    1.17
  -5  -7   5    0.66    0.76
   5  -7  -5    0.52    1.11
   5  -7  -5    1.68    0.73
   5  -7  -5    1.72    0.84
   5  -7  -5    0.95    1.03
  -5  -7   5    1.06    0.81
   5   7  -5    0.67    1.03
  -5   7   5    2.43    0.79
   5   7  -5    2.40    1.00
  -5   7   5    2.74    0.95
   4  -7  -5    2.27    0.83
  -4  -7   5    0.71    2.92
   4  -7  -5    3.40    1.96
  -4  -7   5    2.87    0.83
   4  -7  -5    2.75    1.75
   4  -7  -5    1.31    0.83
  -4  -7   5    3.28    0.83
   4   7  -5    2.19    0.68
  -4   7   5    1.89    1.31
   4   7  -5    2.65    1.21
   4   7  -5    1.67    1.07
  -4   7   5    2.42    0.80
  -4   7   5    1.51    0.77
  -3  -7   5   13.84    2.22
  -3  -7   5   15.40    1.76
   3  -7  -5   15.04    1.82
  -3  -7   5   14.19    3.27
  -3  -7   5   13.16    2.83
   3  -7  -5   12.99    2.37
   3  -7  -5   11.41    2.18
  -3  -7   5   16.57    1.75
   3  -7  -5   15.11    2.66
   3  -7  -5   14.87    1.80
   3  -7  -5   19.33    1.72
  -3   7   5   14.43    1.61
   3   7  -5   11.03    2.00
  -3   7   5   16.34    1.91
   3   7  -5   15.10    1.81
   3   7  -5   14.01    2.02
   2  -7  -5    1.12    2.43
  -2  -7   5   -2.61    3.74
   2  -7  -5    6.59    1.52
  -2  -7   5   -2.70    3.65
   2  -7  -5    3.36    2.30
  -2   7   5    6.06    1.33
   2   7  -5    4.48    1.07
  -2   7   5    6.63    1.01
  -2   7   5    7.69    1.16
   2   7  -5    7.52    1.33
   2   7  -5    6.76    1.33
   1  -7  -5   19.64    2.98
   1  -7  -5   23.27    3.28
   1  -7  -5   21.45    2.08
  -1  -7   5   22.84    2.40
   1  -7  -5   18.13    2.48
  -1  -7   5   16.82    2.57
  -1  -7   5   19.43    2.98
   1   7  -5   16.68    1.96
   1   7  -5   17.99    1.76
  -1   7   5   19.51    1.85
   1   7  -5   18.67    2.79
   1   7  -5   23.02    2.16
   1   7  -5   22.45    2.65
  -1   7   5   18.62    1.86
   0  -7  -5   11.15    1.84
   0  -7  -5   17.64    2.98
   0  -7  -5   11.89    1.62
   0  -7   5   11.41    1.68
   0   7  -5   13.45    1.87
   0   7   5   11.96    1.72
   0   7   5   13.22    1.41
   0   7  -5   11.48    1.38
   0   7  -5   14.43    1.82
   0   7  -5   14.28    1.48
   0   7   5   12.65    1.94
   1  -7   5   17.20    2.49
  -1  -7  -5   11.79    2.31
  -1  -7  -5   19.63    1.99
   1  -7   5   14.60    2.36
  -1  -7  -5   22.14    2.28
   1  -7   5   16.11    2.84
  -1   7  -5   20.89    2.17
   1   7   5   16.38    2.40
  -1   7  -5   16.34    1.70
  -1   7  -5   19.71    1.89
   1   7   5   16.88    1.95
  -2  -7  -5    5.34    1.51
  -2  -7  -5    2.15    2.05
   2  -7   5    5.81    1.61
  -2  -7  -5    1.90    2.93
   2  -7   5    3.98    1.82
   2  -7   5    5.42    2.68
  -2  -7  -5    6.73    1.20
  -2   7  -5    5.58    0.89
  -2   7  -5    3.42    2.83
   2   7   5    4.95    1.15
  -2   7  -5    7.26    1.38
   2   7   5    9.35    1.96
   2   7   5    4.35    0.75
  -2   7  -5    6.08    1.02
   3  -7   5   14.31    2.37
  -3  -7  -5   13.94    1.58
  -3  -7  -5   16.06    2.68
   3  -7   5   17.79    3.50
   3  -7   5   10.59    1.94
  -3  -7  -5   12.14    2.10
   3  -7   5   15.92    2.17
   3  -7   5   14.96    1.82
  -3   7  -5   16.96    2.06
   3   7   5   15.36    1.64
  -3   7  -5   14.46    2.16
  -3   7  -5   15.67    2.13
   4  -7   5    1.27    1.32
  -4  -7  -5    3.25    1.36
  -4  -7  -5    2.46    1.12
  -4  -7  -5   -1.31    3.99
   4  -7   5    1.76    1.90
   4  -7   5    0.64    1.40
  -4  -7  -5    2.29    0.85
   4  -7   5    6.02    2.11
  -4  -7  -5    2.04    1.02
  -4   7  -5    1.53    0.71
   4   7   5    4.44    1.37
  -4   7  -5    3.18    1.43
  -4   7  -5    2.40    0.83
   4   7   5    1.51    1.03
  -4   7  -5   -0.09    3.35
   4   7   5    2.46    1.11
  -5  -7  -5    1.42    0.73
  -5  -7  -5    1.54    1.00
   5  -7   5   -0.13    1.00
   5  -7   5   -0.23    1.91
  -5  -7  -5    0.45    0.95
   5  -7   5    0.86    1.00
   5   7   5    0.73    0.78
  -5   7  -5    1.59    0.67
  -5   7  -5    0.99    0.97
   5   7   5    0.43    0.44
  -6  -7  -5    8.39    1.38
  -6  -7  -5    5.27    0.83
  -6   7  -5    3.51    0.74
   6   7   5    2.64    0.68
   6   7   5    4.45    0.94
   6  -8  -5    0.62    1.13
   6  -8  -5    1.39    1.08
   6  -8  -5    1.80    0.51
   6   8  -5    1.78    0.60
   6   8  -5    0.68    0.83
   5  -8  -5    9.17    1.55
   5  -8  -5    5.79    1.28
  -5  -8   5    9.45    1.09
   5  -8  -5    8.31    1.19
   5  -8  -5    8.65    1.27
  -5   8   5    4.55    0.89
   5   8  -5    5.56    0.95
   4  -8  -5    7.32    1.58
   4  -8  -5    5.05    1.35
   4  -8  -5    7.82    1.14
   4  -8  -5    7.91    1.10
   4   8  -5    7.60    1.00
  -4   8   5    7.41    1.51
   4   8  -5    7.59    1.37
   4   8  -5    9.58    1.47
  -4   8   5    6.48    1.08
  -3  -8   5   11.95    1.67
  -3  -8   5   15.87    1.75
   3  -8  -5   11.82    2.22
   3  -8  -5   14.51    1.71
   3  -8  -5   14.38    2.71
  -3  -8   5    9.31    5.18
   3  -8  -5   14.47    1.71
  -3   8   5   14.14    2.12
  -3   8   5   14.78    1.60
  -3   8   5   15.78    1.68
   3   8  -5   13.93    2.23
   2  -8  -5    6.32    1.16
   2  -8  -5    9.83    1.83
   2  -8  -5    7.72    1.70
   2  -8  -5    5.46    1.54
  -2   8   5    8.01    1.30
   2   8  -5    6.85    1.38
  -2   8   5    5.94    1.03
  -2   8   5    6.32    1.44
   2   8  -5    8.47    0.97
   1  -8  -5   17.96    2.06
   1  -8  -5   25.16    3.11
   1  -8  -5   22.26    2.16
  -1  -8   5   14.01    3.07
  -1  -8   5   20.41    2.60
  -1  -8   5   16.98    2.50
   1  -8  -5   22.88    3.13
   1   8  -5   18.92    3.06
   1   8  -5   20.69    1.89
  -1   8   5   20.08    1.99
  -1   8   5   19.53    2.32
   1   8  -5   22.80    2.11
  -1   8   5   24.78    2.57
   1   8  -5   18.06    2.28
   0  -8  -5   70.06    7.06
   0  -8   5   62.56    5.43
   0  -8  -5   65.47    6.40
   0  -8  -5   66.41    5.37
   0  -8   5   68.88    6.08
   0   8  -5   62.36    4.95
   0   8   5   59.81    5.07
   0   8  -5   66.69    5.38
   0   8   5   65.24    5.34
   0   8   5   67.80    5.42
  -1  -8  -5   20.41    3.66
   1  -8   5   24.00    3.28
  -1  -8  -5   18.45    2.46
  -1  -8  -5   26.53    2.55
   1  -8   5   23.36    2.40
   1  -8   5   19.08    3.18
  -1   8  -5   20.48    1.98
   1   8   5   19.18    2.91
  -1   8  -5   26.64    2.89
  -1   8  -5   21.62    2.05
   1   8   5   22.14    2.12
   2  -8   5    5.58    2.35
   2  -8   5    4.07    1.62
  -2  -8  -5    7.69    1.49
   2  -8   5    6.00    1.23
   2  -8   5    6.74    1.71
   2   8   5    5.00    2.05
   2   8   5    4.07    0.97
  -2   8  -5    9.46    5.13
  -2   8  -5    7.16    1.09
  -2   8  -5    7.31    1.02
   2   8   5    4.86    0.96
   2   8   5    7.51    1.81
  -2   8  -5    7.30    2.36
   3  -8   5   13.14    2.19
   3  -8   5   10.79    1.46
   3  -8   5   11.41    1.84
   3  -8   5   16.92    3.35
  -3  -8  -5   13.34    1.86
   3  -8   5    9.39    1.96
   3   8   5   11.80    1.83
   3   8   5    8.12    1.75
  -3   8  -5   11.78    1.39
  -3   8  -5    6.55    3.28
   3   8   5   10.97    1.43
  -3   8  -5   13.71    2.07
  -3   8  -5    8.45    1.65
   4  -8   5    3.00    1.21
   4  -8   5    3.84    1.32
  -4  -8  -5    5.70    2.67
   4  -8   5    3.77    1.20
  -4   8  -5    4.13    1.24
   4   8   5    7.23    1.32
   5  -8   5    7.03    1.18
   5  -8   5    4.42    1.12
  -5   8  -5    6.43    1.49
  -5   8  -5    6.66    0.97
   5   8   5    5.61    1.03
  -6  -8  -5    2.46    0.92
   6  -8   5    1.57    0.61
   6  -8   5   -0.37    0.89
   6   8   5    0.80    0.70
   6   8   5    1.24    0.66
   5  -9  -5    0.39    0.56
   5  -9  -5    0.17    0.80
   5  -9  -5   -0.22    1.16
  -5   9   5    2.26    0.89
   5   9  -5    0.28    0.66
  -4  -9   5   -0.97    1.36
   4  -9  -5    2.29    0.87
   4  -9  -5   -0.67    1.77
   4  -9  -5    1.77    1.26
   4  -9  -5    1.49    0.98
  -4   9   5    2.92    0.79
   4   9  -5    1.96    0.72
   3  -9  -5    5.37    1.47
   3  -9  -5    5.66    1.06
   3   9  -5    4.93    1.48
  -3   9   5    6.71    1.34
   2  -9  -5    5.66    1.08
   2  -9  -5    2.85    1.45
  -2  -9   5    3.53    2.06
   2  -9  -5    4.35    0.99
   2  -9  -5    4.57    1.70
   2   9  -5    4.59    1.04
  -2   9   5    6.19    1.72
  -2   9   5    5.15    0.96
   2   9  -5    4.97    1.62
   2   9  -5    2.16    1.29
   1  -9  -5   13.63    2.57
   1  -9  -5   13.90    1.83
   1  -9  -5   13.10    1.77
   1  -9  -5   15.09    2.20
  -1  -9   5   17.26    2.35
  -1  -9   5   18.92    3.73
   1   9  -5   15.22    1.56
   1   9  -5   19.07    2.35
  -1   9   5   13.67    2.06
  -1   9   5   14.54    1.90
  -1   9   5   13.57    1.66
   1   9  -5   14.72    1.58
   0  -9   5   11.65    2.25
   0  -9   5   11.16    1.59
   0  -9  -5    8.12    2.38
   0  -9  -5    6.81    1.24
   0   9   5    9.35    1.89
   0   9   5    7.79    1.21
   0   9  -5    8.69    2.18
   0   9  -5    8.24    1.06
   0   9  -5    9.47    1.28
   1  -9   5   15.08    2.06
  -1  -9  -5   14.44    2.00
   1  -9   5   12.61    2.36
   1  -9   5   13.77    2.01
   1  -9   5   12.81    2.22
   1   9   5   15.84    1.57
   1   9   5    7.63    2.67
  -1   9  -5   13.61    1.51
   1   9   5   14.70    1.69
   1   9   5   16.76    2.43
  -1   9  -5   13.94    1.60
  -1   9  -5   14.21    2.25
  -2  -9  -5    4.77    1.63
  -2  -9  -5    3.46    1.14
   2  -9   5    4.03    1.16
   2  -9   5    1.52    1.54
   2   9   5    4.06    0.90
   2   9   5    6.37    4.48
   2   9   5    4.55    1.17
  -2   9  -5    0.91    3.07
  -2   9  -5    1.85    2.33
  -2   9  -5    4.08    0.86
   2   9   5    3.94    1.07
  -2   9  -5    2.33    1.13
   3  -9   5   10.83    1.74
  -3  -9  -5   14.75    2.21
   3  -9   5   12.62    2.60
   3  -9   5   18.50    3.65
   3  -9   5   11.05    1.88
   3   9   5    9.28    1.90
  -3   9  -5    8.82    1.35
  -3   9  -5   11.71    1.64
   3   9   5   10.86    1.81
   3   9   5    9.98    1.33
   4  -9   5    0.83    1.09
   4  -9   5    0.72    1.01
   4  -9   5    1.11    1.11
  -4  -9  -5    3.28    2.18
  -4  -9  -5    2.58    1.10
  -4   9  -5    2.08    1.26
  -4   9  -5    1.78    0.68
   4   9   5    0.93    1.07
   4   9   5    0.67    1.05
  -4   9  -5    2.45    0.79
   5  -9   5    0.28    0.81
   5  -9   5   -0.24    0.77
  -5  -9  -5    2.17    1.72
   5   9   5    0.93    0.82
  -5   9  -5    1.87    0.55
   4 -10  -5    0.32    0.62
   4 -10  -5    1.21    1.09
   4 -10  -5    1.63    1.72
  -4 -10   5    5.42    2.56
   4  10  -5    0.37    0.71
   3 -10  -5   10.56    1.78
   3 -10  -5   11.40    1.79
   3 -10  -5   13.88    1.68
   3  10  -5   12.22    1.82
  -3  10   5   14.40    1.65
  -2 -10   5    6.56    1.61
   2 -10  -5    4.68    1.48
   2 -10  -5    2.71    1.28
   2 -10  -5    5.48    0.90
   2 -10  -5    5.91    1.01
  -2  10   5    6.49    1.08
   2  10  -5    7.44    0.90
  -2  10   5    4.98    1.14
   1 -10  -5    6.97    1.14
  -1 -10   5    7.23    1.53
   1 -10  -5    7.80    2.05
  -1  10   5    7.85    1.58
   1  10  -5    8.73    1.33
   1  10  -5    6.99    0.98
   0 -10  -5    4.37    1.98
   0 -10   5    1.87    1.27
   0 -10  -5    2.87    0.97
   0 -10   5    4.29    1.23
   0 -10   5   -0.59    1.99
   0  10  -5    3.32    0.88
   0  10  -5    2.08    0.74
   0  10   5    2.79    0.84
   0  10   5    2.69    2.91
   0  10   5    2.05    0.91
   0  10  -5    0.86    1.81
   1 -10   5    6.46    1.19
   1 -10   5    5.11    1.97
  -1 -10  -5    4.80    1.22
   1 -10   5    3.92    1.59
  -1  10  -5    6.03    0.94
   1  10   5    5.95    1.25
  -1  10  -5    6.66    0.98
   1  10   5    5.68    1.00
   1  10   5    8.91    1.23
   2 -10   5    4.60    1.64
   2 -10   5    8.55    2.63
  -2 -10  -5    3.62    1.80
   2 -10   5    3.31    1.39
   2 -10   5    6.63    1.76
  -2 -10  -5    6.44    1.35
  -2  10  -5    4.53    0.87
  -2  10  -5    4.56    0.84
   2  10   5    4.65    1.33
   2  10   5    3.44    2.59
  -3 -10  -5   11.09    1.82
  -3 -10  -5   11.28    1.88
   3 -10   5   12.16    1.66
   3 -10   5    7.92    1.47
   3 -10   5    8.21    1.48
   3  10   5    7.24    1.87
  -3  10  -5   12.51    1.63
   3  10   5   12.31    1.81
  -3  10  -5   10.97    1.40
  -4 -10  -5    1.68    1.17
  -4 -10  -5    7.23    1.96
  -4  10  -5    1.42    0.97
  -4  10  -5    0.06    0.59
  -4  10  -5    0.39    0.64
   4  10   5   -0.05    1.03
   4 -11  -5    2.68    0.83
  -4 -11   5    3.43    2.66
  -4  11   5    3.74    1.34
  -4  11   5    5.37    0.88
   4  11  -5    3.42    0.94
   3 -11  -5    3.35    1.06
   3 -11  -5    3.08    1.10
   3  11  -5    6.19    1.30
  -3  11   5    4.66    1.09
   2 -11  -5    1.06    1.18
   2 -11  -5    1.62    1.10
  -2 -11   5    3.27    1.47
   2 -11  -5    2.96    1.39
   2  11  -5    4.69    0.99
  -2  11   5    4.93    1.02
   1 -11  -5    9.44    2.24
   1 -11  -5   12.42    2.07
  -1 -11   5   14.95    2.21
   1 -11  -5   13.50    1.72
  -1  11   5   14.12    1.54
   1  11  -5   14.14    1.49
  -1  11   5   12.83    1.96
  -1  11   5   15.20    1.67
   1  11  -5   12.61    1.83
   0 -11   5    8.04    1.61
   0 -11   5   12.64    1.83
   0 -11  -5   12.11    1.71
   0  11  -5   12.95    1.47
   0  11  -5   13.85    1.78
   0  11  -5   10.64    1.39
   0  11   5   11.68    1.54
   1 -11   5   10.09    1.74
   1 -11   5   15.47    1.87
  -1 -11  -5   13.76    1.89
   1  11   5   13.01    1.44
  -1  11  -5   11.13    1.46
   1  11   5   13.44    1.81
  -1  11  -5   11.40    1.43
   2 -11   5    1.47    1.20
  -2 -11  -5    3.94    1.13
   2 -11   5    3.64    2.37
   2 -11   5    2.83    0.87
  -2 -11  -5    5.60    1.65
   2 -11   5    2.40    1.32
  -2  11  -5    3.72    0.81
   2  11   5    2.92    2.58
  -2  11  -5    3.22    0.79
   2  11   5    3.84    1.00
   2  11   5    2.06    0.70
   3 -11   5    4.55    1.24
  -3 -11  -5    8.96    1.27
   3 -11   5    7.85    1.54
  -3 -11  -5    5.76    1.45
   3  11   5    7.41    2.01
  -3  11  -5    5.82    0.95
   3  11   5    8.99    1.75
  -3  11  -5    6.20    0.94
  -4 -11  -5    5.18    1.80
   4 -11   5    3.18    0.77
   4 -11   5    3.43    0.75
  -4 -11  -5    2.32    1.74
  -4  11  -5    4.34    0.95
  -4  11  -5    5.48    0.74
   4  11   5    4.02    1.28
   3 -12  -5    0.45    0.80
   3 -12  -5    0.26    1.25
   3 -12  -5   -0.33    1.09
  -3  12   5    0.76    0.57
  -3  12   5    1.16    0.66
  -3  12   5    1.37    0.99
   2 -12  -5    0.42    0.83
  -2 -12   5    1.73    1.46
   2 -12  -5    0.09    1.14
   2 -12  -5   -1.31    1.36
  -2 -12   5    1.52    1.10
  -2  12   5    2.46    1.01
  -2  12   5   -0.14    1.14
  -2  12   5    0.88    0.67
   1 -12  -5    3.33    0.76
  -1 -12   5    2.33    1.21
   1 -12  -5    0.81    1.54
  -1 -12   5    2.15    1.42
  -1  12   5    1.71    0.67
  -1  12   5    1.73    0.84
   0 -12  -5    2.15    0.94
   0 -12   5    2.13    0.98
   0  12   5    1.65    0.69
   0  12  -5    2.26    1.15
   0  12  -5    2.59    0.69
   0  12   5    2.75    0.65
   0  12   5    4.03    0.88
   1 -12   5    2.97    2.01
  -1  12  -5   -0.09    1.66
  -1  12  -5    3.23    1.02
   1  12   5    1.89    0.96
   2 -12   5    0.36    0.97
   2 -12   5    0.44    0.72
  -2 -12  -5    0.46    1.02
  -2  12  -5    0.66    0.67
   2  12   5   -7.02    3.48
  -2  12  -5    0.89    0.89
   2  12   5    0.90    0.60
   2  12   5    1.46    0.94
  -2  12  -5    1.47    0.77
   3 -12   5   -0.22    0.74
  -3 -12  -5    0.56    1.79
   3 -12   5    0.46    0.79
  -3  12  -5    0.32    0.78
   3  12   5   -0.69    1.06
  -3  12  -5    0.25    0.52
   1 -13  -5    5.24    0.97
  -1 -13   5    5.24    1.14
  -1 -13   5    6.74    1.03
  -1  13   5    7.22    1.10
   1  13  -5    9.47    1.20
  -1  13   5   11.16    1.49
  -1  13   5    8.16    0.96
   0 -13   5    7.94    1.29
   0 -13   5    5.86    1.10
   0 -13  -5    4.52    0.96
   0  13   5    8.57    1.08
   0  13   5   10.43    1.67
   0  13  -5    7.26    1.13
   1 -13   5    6.24    1.09
  -1 -13  -5    4.86    1.01
   1 -13   5    7.36    1.10
  -1 -13  -5    7.66    1.01
  -1  13  -5   13.43    1.71
  -1  13  -5    8.27    1.20
   1  13   5   10.74    1.72
   7   0  -6    4.92    0.75
   7   0  -6    5.44    0.80
   7   0  -6    5.96    0.94
  -7   0   6    6.68    0.93
   6   0  -6    8.85    2.24
   6   0  -6    4.32    1.11
  -6   0   6    4.98    0.93
   6   0  -6    1.81    1.32
   6   0  -6    4.06    0.86
   6   0  -6    3.35    0.84
   5   0  -6    1.43    1.10
   5   0  -6    1.63    1.22
   5   0  -6    2.24    2.29
  -5   0   6    1.84    0.76
   5   0  -6    3.41    1.07
   5   0  -6    2.44    1.84
   5   0  -6    1.23    0.96
  -5   0   6    2.41    0.77
   4   0  -6    6.21    1.10
   4   0  -6    6.79    1.13
  -4   0   6    7.55    1.44
  -4   0   6    9.12    1.29
   4   0  -6    7.17    1.42
   4   0  -6    7.78    1.47
   4   0  -6    6.49    1.54
   4   0  -6    8.03    1.76
  -4   0   6    8.62    1.21
   3   0  -6    3.00    1.40
   3   0  -6    3.67    1.10
  -3   0   6    5.70    1.14
   3   0  -6    5.40    0.96
   3   0  -6    4.26    0.88
  -3   0   6    4.95    0.81
  -2   0   6    1.24    0.72
   2   0  -6    3.36    0.92
  -2   0   6    1.71    0.86
   2   0  -6   -0.97    0.94
   2   0  -6    2.05    0.79
  -2   0   6    0.01    1.15
   2   0  -6    2.54    1.20
   2   0  -6    1.51    0.92
  -1   0   6    2.47    1.14
   1   0  -6    1.74    1.03
   1   0  -6    1.99    0.76
  -1   0   6    0.93    0.54
  -1   0   6    2.12    0.59
  -1   0   6    1.78    0.82
  -1   0   6    0.63    1.24
   0   0   6   -0.92    1.56
   0   0   6    0.79    0.46
   0   0  -6   -0.11    0.43
   0   0  -6   -0.55    1.05
   0   0   6    0.32    0.45
   0   0   6   -0.84    0.74
   0   0  -6   -0.63    1.57
   0   0  -6    0.48    1.00
   0   0  -6    0.17    0.68
   0   0   6    0.66    0.85
   0   0  -6   -1.74    2.10
   0   0  -6    0.59    0.75
  -1   0  -6    1.33    0.54
  -1   0  -6    1.15    0.99
   1   0   6    2.80    1.00
   1   0   6    2.04    1.46
  -1   0  -6    1.15    0.93
   1   0   6    1.71    0.59
   1   0   6    3.21    0.83
   2   0   6    3.76    0.97
  -2   0  -6    3.21    1.11
   2   0   6    4.16    1.37
  -2   0  -6    3.06    0.69
  -2   0  -6    3.61    0.88
   2   0   6    3.71    0.86
  -2   0  -6    3.43    0.83
  -2   0  -6    2.92    0.68
  -2   0  -6    1.51    1.67
  -2   0  -6    3.67    1.16
   3   0   6    9.69    2.11
  -3   0  -6    8.38    1.78
  -3   0  -6    9.40    1.52
   3   0   6   11.11    1.56
  -3   0  -6    7.84    1.11
  -3   0  -6    8.32    1.22
  -3   0  -6    9.96    1.28
   3   0   6    9.93    1.61
  -3   0  -6    7.78    1.21
  -3   0  -6    7.49    2.41
   4   0   6    1.97    1.02
   4   0   6    3.90    1.34
  -4   0  -6    2.07    2.37
   4   0   6    6.73    1.54
   4   0   6    1.90    1.55
  -4   0  -6    2.67    2.14
  -4   0  -6    5.30    0.89
  -4   0  -6    3.86    0.75
  -4   0  -6    2.98    1.38
   5   0   6    1.56    1.29
  -5   0  -6   -0.82    2.79
  -5   0  -6    1.99    0.79
  -5   0  -6    3.01    1.16
  -5   0  -6    2.55    0.73
  -6   0  -6    5.94    0.95
   6   0   6    5.76    1.19
   6   0   6    4.68    1.23
  -6   0  -6    6.92    1.13
   6   0   6    3.92    1.15
   6   0   6    6.90    1.57
   7   0   6    3.40    0.76
   7   0   6    3.18    0.85
   7   0   6    3.18    0.86
  -7   0  -6    4.65    1.00
   7  -1  -6    5.27    1.08
   7  -1  -6    4.72    0.68
  -7  -1   6    7.12    1.45
   7  -1  -6    3.01    0.64
   7   1  -6    2.68    0.56
   7   1  -6    4.54    0.70
   7   1  -6    3.24    0.83
   6  -1  -6    6.23    0.91
   6  -1  -6    6.68    1.30
   6  -1  -6    8.44    1.54
   6  -1  -6    5.87    1.95
   6  -1  -6    5.90    1.00
   6   1  -6    5.59    1.25
   6   1  -6    7.97    1.45
  -6   1   6    8.91    1.06
   6   1  -6    5.25    1.58
   6   1  -6    5.64    0.95
   6   1  -6    7.74    1.00
   5  -1  -6   22.74    2.70
  -5  -1   6   20.13    1.93
   5  -1  -6   13.26    2.54
  -5  -1   6   18.09    2.61
  -5  -1   6   18.31    1.87
   5   1  -6   16.32    2.09
   5   1  -6   18.18    2.90
   5   1  -6   13.37    2.00
  -5   1   6   19.16    2.64
  -5   1   6   17.92    1.88
   5   1  -6   17.68    2.25
  -5   1   6   18.62    1.85
   4  -1  -6   54.20    4.68
   4  -1  -6   53.91    4.32
   4  -1  -6   59.24    4.74
  -4  -1   6   60.06    4.61
   4  -1  -6   50.61    4.84
   4  -1  -6   54.62    4.38
   4  -1  -6   55.84    4.35
  -4  -1   6   51.22    4.31
  -4  -1   6   55.14    4.32
   4   1  -6   60.81    4.53
  -4   1   6   56.69    4.56
   4   1  -6   56.27    4.53
   4   1  -6   62.50    4.91
  -4   1   6   58.12    4.67
  -4   1   6   53.67    4.48
   4   1  -6   51.89    5.12
   4   1  -6   61.62    4.95
   4   1  -6   53.13    4.48
   3  -1  -6   10.96    1.53
   3  -1  -6   15.93    2.42
  -3  -1   6   11.51    1.32
   3  -1  -6    8.44    1.65
   3  -1  -6   13.74    1.70
   3  -1  -6   11.27    1.49
  -3  -1   6   14.34    2.22
   3  -1  -6   12.62    1.50
  -3  -1   6   11.86    1.36
   3  -1  -6    8.18    1.60
   3   1  -6   10.64    1.75
  -3   1   6   11.34    1.56
   3   1  -6   13.17    1.69
  -3   1   6   10.97    1.35
  -3   1   6   10.63    1.34
   3   1  -6   10.81    1.56
  -2  -1   6    6.99    1.27
   2  -1  -6    6.92    1.12
  -2  -1   6    6.99    0.97
   2  -1  -6    4.40    1.10
   2  -1  -6    6.27    1.02
   2  -1  -6    4.57    1.01
   2  -1  -6    4.18    1.52
   2   1  -6    5.71    1.18
   2   1  -6    5.94    0.99
  -2   1   6    6.78    1.33
   2   1  -6    8.52    1.85
  -2   1   6    7.51    1.05
   2   1  -6    5.62    1.26
  -1  -1   6   18.97    1.77
   1  -1  -6   20.91    2.27
   1  -1  -6   22.65    2.08
  -1  -1   6   17.71    2.00
  -1  -1   6   19.85    2.00
  -1  -1   6   20.40    1.79
  -1   1   6   18.23    1.74
  -1   1   6   22.50    1.95
   1   1  -6   11.08    4.68
  -1   1   6   19.18    1.77
   1   1  -6   22.47    1.90
   0  -1   6    4.76    0.69
   0  -1  -6    5.72    1.03
   0  -1  -6    4.96    1.24
   0  -1   6    5.70    0.82
   0  -1  -6    5.34    0.81
   0  -1  -6    4.18    1.04
   0  -1  -6    1.57    2.07
   0  -1   6    5.94    1.32
   0  -1   6    3.49    1.03
   0   1   6    5.61    0.86
   0   1  -6    5.38    0.91
   0   1   6    4.73    0.75
   0   1  -6    4.30    0.67
   0   1   6    4.57    1.03
  -1  -1  -6   23.62    3.53
  -1  -1  -6   21.05    2.14
   1  -1   6   23.59    2.76
  -1  -1  -6   23.28    2.30
  -1  -1  -6   21.94    2.02
  -1  -1  -6   23.37    2.41
   1  -1   6   28.52    2.29
  -1  -1  -6   25.17    2.08
  -1   1  -6   22.03    2.06
  -1   1  -6   22.55    2.35
   1   1   6   26.93    2.31
  -1   1  -6   24.16    2.08
  -1   1  -6   26.17    2.37
   1   1   6   27.61    2.05
  -1   1  -6   18.90    3.57
   2  -1   6    1.48    2.58
  -2  -1  -6    4.66    1.28
  -2  -1  -6    3.44    0.66
  -2  -1  -6    4.37    0.74
  -2  -1  -6    5.00    0.92
   2  -1   6    4.78    1.28
  -2  -1  -6    2.30    1.57
   2  -1   6    3.99    1.01
  -2  -1  -6    4.97    0.85
   2  -1   6    4.76    1.61
  -2   1  -6    1.33    1.98
   2   1   6    3.03    0.81
   2   1   6    5.50    1.10
  -2   1  -6    3.78    1.13
  -2   1  -6    3.70    1.09
  -2   1  -6    3.04    0.77
  -2   1  -6    2.87    0.85
   2   1   6    2.92    1.31
   3  -1   6   13.39    1.95
   3  -1   6   12.80    2.26
  -3  -1  -6    7.89    2.83
  -3  -1  -6   12.27    1.52
  -3  -1  -6   11.97    1.83
  -3  -1  -6   12.10    1.35
  -3  -1  -6   11.00    1.66
  -3  -1  -6   11.18    1.33
   3  -1   6   13.18    1.73
  -3  -1  -6   10.87    1.57
  -3   1  -6   13.07    1.90
   3   1   6   13.80    1.78
  -3   1  -6   10.78    1.36
   3   1   6   12.26    2.04
   3   1   6   10.18    2.09
  -3   1  -6    5.79    4.02
   3   1   6   18.19    2.61
  -3   1  -6   10.38    1.34
  -3   1  -6   13.57    1.68
  -3   1  -6   12.32    1.46
  -3   1  -6   11.41    1.94
  -4  -1  -6   45.86    3.56
  -4  -1  -6   44.41    4.43
  -4  -1  -6   48.93    3.62
   4  -1   6   36.63    3.97
  -4  -1  -6   38.55    5.67
   4  -1   6   42.78    3.73
  -4  -1  -6   48.68    3.58
  -4  -1  -6   44.86    3.97
   4  -1   6   42.23    3.99
   4  -1   6   40.25    4.17
   4   1   6   49.83    4.61
  -4   1  -6   46.89    4.65
  -4   1  -6   47.75    3.68
   4   1   6   38.92    3.86
  -4   1  -6   46.07    4.05
  -4   1  -6   56.64    4.12
  -4   1  -6   41.08    5.87
  -4   1  -6   45.73    3.68
  -4   1  -6   47.57    3.77
   4   1   6   36.60    4.21
   5  -1   6    3.69    1.57
  -5  -1  -6    7.70    2.09
   5  -1   6    5.70    1.16
  -5  -1  -6    9.62    1.28
  -5  -1  -6    9.10    3.14
   5  -1   6    6.62    2.13
  -5   1  -6    8.43    2.19
  -5   1  -6    4.55    2.93
   5   1   6    8.31    1.79
   5   1   6    3.77    2.05
   6  -1   6    1.14    1.09
   6  -1   6    3.78    1.27
   6  -1   6    2.48    1.09
   6  -1   6    2.81    1.02
  -6  -1  -6    2.30    1.04
   6   1   6    1.63    1.05
   6   1   6    1.60    1.10
  -6   1  -6    5.45    0.88
   6   1   6    3.19    1.06
  -6   1  -6    3.70    0.74
  -7  -1  -6    2.52    0.63
  -7  -1  -6    2.25    0.64
   7  -1   6    1.32    0.79
   7  -1   6    3.23    1.03
   7  -1   6    0.61    0.78
   7  -1   6    4.64    1.29
   7   1   6    1.63    0.69
   7   1   6    0.74    0.54
   7   1   6    1.45    0.75
   7  -2  -6    2.89    0.54
  -7  -2   6    4.23    1.18
   7  -2  -6    3.12    0.57
   7  -2  -6    2.88    1.05
   7   2  -6    3.88    0.66
   7   2  -6    4.18    0.70
   7   2  -6    2.75    0.87
   6  -2  -6    4.64    1.12
   6  -2  -6    7.24    2.76
   6  -2  -6    4.24    0.86
   6  -2  -6    3.82    0.83
   6  -2  -6    4.15    1.39
  -6  -2   6    5.69    0.92
   6   2  -6    3.82    1.39
   6   2  -6    5.06    1.23
  -6   2   6    6.08    0.89
   6   2  -6    5.03    1.27
  -6   2   6    6.93    1.61
   6   2  -6    3.26    0.79
   6   2  -6    4.96    0.87
   5  -2  -6    5.70    1.05
   5  -2  -6    5.06    1.52
   5  -2  -6    6.38    1.04
  -5  -2   6    6.59    0.97
  -5  -2   6    5.36    1.85
  -5  -2   6    6.78    1.01
   5  -2  -6    7.36    1.64
   5   2  -6    5.74    0.89
   5   2  -6    6.49    1.60
   5   2  -6    3.24    1.25
  -5   2   6    6.02    1.53
  -5   2   6    6.69    1.03
   5   2  -6    5.34    0.96
  -5   2   6    6.10    0.98
   5   2  -6    5.43    0.89
   4  -2  -6   13.43    1.64
   4  -2  -6   14.54    2.48
   4  -2  -6   13.77    1.72
   4  -2  -6   11.83    2.24
  -4  -2   6   15.17    1.59
  -4  -2   6   14.81    2.14
   4  -2  -6   15.48    2.01
   4  -2  -6   14.84    1.67
   4  -2  -6   12.65    2.23
  -4  -2   6   13.67    1.54
   4   2  -6   16.19    1.67
  -4   2   6   13.32    1.88
   4   2  -6   16.44    2.21
  -4   2   6   14.92    1.60
   4   2  -6   12.55    1.69
   4   2  -6   16.12    2.87
  -4   2   6   12.86    1.57
   4   2  -6   13.50    2.10
   3  -2  -6   35.39    6.10
   3  -2  -6   41.50    3.42
   3  -2  -6   36.84    3.51
   3  -2  -6   44.15    3.36
  -3  -2   6   38.90    3.28
   3  -2  -6   31.61    3.70
  -3  -2   6   42.72    3.57
   3  -2  -6   44.75    3.38
  -3  -2   6   39.49    3.29
   3  -2  -6   49.69    4.19
   3   2  -6   40.69    3.35
  -3   2   6   37.73    3.23
  -3   2   6   38.63    3.49
  -3   2   6   44.16    3.40
   3   2  -6   43.26    3.31
   3   2  -6   34.52    3.61
  -3   2   6   38.36    3.20
   3   2  -6   40.70    3.31
   2  -2  -6   38.09    2.90
   2  -2  -6   25.47    4.82
   2  -2  -6   36.89    2.94
   2  -2  -6   32.44    3.07
  -2  -2   6   32.63    2.73
  -2  -2   6   36.97    3.05
   2  -2  -6   30.68    3.01
   2  -2  -6   34.14    2.87
  -2  -2   6   34.80    2.91
   2   2  -6   33.29    3.22
  -2   2   6   35.33    2.83
  -2   2   6   32.05    2.80
   2   2  -6   28.65    3.21
  -2   2   6   35.95    2.96
   2   2  -6   42.29    3.13
   2   2  -6   33.09    2.88
  -1  -2   6   43.24    3.40
  -1  -2   6   44.17    3.19
   1  -2  -6   32.54    4.87
   1  -2  -6   36.85    3.43
  -1  -2   6   44.27    3.21
  -1  -2   6   41.93    3.42
  -1  -2   6   41.41    5.83
   1  -2  -6   39.62    3.40
   1  -2  -6   35.30    3.28
   1   2  -6   33.32    2.91
   1   2  -6   28.26    2.80
   1   2  -6   29.63    2.89
  -1   2   6   40.18    2.85
  -1   2   6   42.60    2.88
   1   2  -6   31.50    3.42
  -1   2   6   41.42    3.26
   0  -2   6    2.09    1.36
   0  -2   6    3.93    0.77
   0  -2  -6    3.71    1.23
   0  -2   6    4.21    0.63
   0  -2  -6    4.52    0.80
   0  -2  -6    2.90    2.22
   0  -2   6    5.94    1.13
   0  -2   6    6.31    2.25
   0  -2  -6    2.58    1.51
   0  -2  -6    3.89    0.92
   0  -2  -6    1.73    1.40
   0  -2  -6    3.65    1.06
   0   2   6    4.26    0.70
   0   2  -6    1.70    2.13
   0   2   6    3.30    0.65
   0   2  -6    4.55    0.67
   0   2  -6    4.64    2.28
   0   2   6    3.19    1.23
   0   2  -6    3.94    0.88
   0   2  -6    3.89    1.02
   0   2   6    2.86    0.93
   0   2  -6    4.09    0.79
   0   2  -6    3.88    0.66
  -1  -2  -6   35.63    2.76
  -1  -2  -6   35.82    2.81
  -1  -2  -6   35.77    2.71
  -1  -2  -6   30.83    2.94
  -1  -2  -6   36.34    3.11
   1  -2   6   28.27    2.84
   1  -2   6   25.54    3.03
  -1  -2  -6   35.51    2.68
  -1   2  -6   35.81    2.70
   1   2   6   27.37    2.89
  -1   2  -6   35.55    2.95
  -1   2  -6   28.40    4.18
   1   2   6   28.74    2.63
  -1   2  -6   38.76    2.85
  -1   2  -6   36.81    2.67
   1   2   6   31.49    4.04
   2  -2   6   38.93    3.52
  -2  -2  -6   36.41    3.28
   2  -2   6   44.18    3.78
  -2  -2  -6   35.09    2.99
  -2  -2  -6   36.10    2.92
  -2  -2  -6   36.18    2.95
   2  -2   6   35.84    3.46
   2  -2   6   36.16    3.36
  -2  -2  -6   26.83    4.33
  -2   2  -6   36.74    2.87
   2   2   6   34.28    2.86
  -2   2  -6   37.70    4.87
   2   2   6   34.28    3.41
  -2   2  -6   34.77    3.09
  -2   2  -6   33.58    2.80
   2   2   6   30.99    4.21
  -2   2  -6   35.06    2.91
  -2   2  -6   34.29    2.96
   2   2   6   34.75    3.15
  -3  -2  -6   45.92    3.78
   3  -2   6   47.61    4.08
   3  -2   6   41.40    4.42
  -3  -2  -6   43.17    3.61
  -3  -2  -6   40.66    3.68
  -3  -2  -6   35.32    5.96
  -3  -2  -6   52.40    4.11
  -3  -2  -6   48.02    4.17
   3  -2   6   46.73    3.88
  -3  -2  -6   50.85    4.04
  -3   2  -6   44.85    3.64
  -3   2  -6   52.62    4.26
  -3   2  -6   41.29    3.54
  -3   2  -6   41.05    3.53
   3   2   6   39.19    4.39
   3   2   6   47.97    3.95
   3   2   6   51.83    4.18
  -3   2  -6   41.88    4.03
  -3   2  -6   44.48    5.57
  -3   2  -6   41.75    3.68
  -4  -2  -6   10.66    1.87
  -4  -2  -6   12.76    2.93
   4  -2   6   15.74    1.99
  -4  -2  -6   14.51    1.63
   4  -2   6   13.67    1.92
  -4  -2  -6   14.20    1.55
   4  -2   6   14.04    2.00
  -4  -2  -6   13.00    1.67
   4  -2   6    8.97    1.96
  -4   2  -6   16.28    2.15
  -4   2  -6   12.66    1.50
   4   2   6   12.94    1.94
  -4   2  -6   14.21    1.95
  -4   2  -6   11.96    1.83
  -4   2  -6   16.28    3.60
  -4   2  -6   13.41    1.61
   4   2   6   16.69    2.31
   5  -2   6    4.25    1.58
   5  -2   6    5.38    1.32
  -5  -2  -6    3.73    1.79
  -5  -2  -6    5.63    0.98
   5  -2   6    6.17    1.45
  -5  -2  -6    6.11    1.04
  -5  -2  -6    5.82    0.99
  -5  -2  -6    7.02    3.14
   5  -2   6    8.09    1.51
  -5   2  -6    5.17    0.95
   5   2   6    5.47    1.01
   5   2   6    5.18    1.35
   5   2   6    6.19    1.90
   5   2   6    5.97    1.45
  -5   2  -6    5.44    0.92
  -5   2  -6    5.48    1.55
  -5   2  -6    2.39    2.94
  -5   2  -6    5.09    1.70
   6  -2   6    4.50    1.20
   6  -2   6    4.52    1.19
  -6  -2  -6    5.83    0.91
  -6  -2  -6    5.50    0.87
   6  -2   6    7.48    1.54
   6  -2   6    4.69    1.26
  -6  -2  -6    6.99    0.99
  -6   2  -6    7.17    1.06
  -6   2  -6    6.91    1.27
  -6   2  -6    6.16    0.99
   6   2   6    7.40    3.13
   7  -2   6    1.22    0.71
  -7  -2  -6    2.88    0.74
   7  -2   6    1.88    0.61
   7  -2   6    0.99    0.77
   7  -2   6    1.59    1.01
  -7  -2  -6    2.02    0.60
   7   2   6    1.27    0.74
  -6  -3   6    1.69    0.77
   6  -3  -6    1.24    1.03
   6  -3  -6    1.28    0.66
  -6  -3   6    1.58    0.77
   6  -3  -6    1.54    1.89
   6  -3  -6    1.66    0.68
   6   3  -6    1.70    0.86
   6   3  -6    1.73    1.24
  -6   3   6    2.94    0.77
  -6   3   6    2.40    0.80
   6   3  -6    2.35    1.13
   6   3  -6    1.13    0.64
   5  -3  -6    8.16    1.56
   5  -3  -6    7.51    1.12
  -5  -3   6    5.11    2.71
  -5  -3   6    8.51    1.27
   5  -3  -6    7.45    1.12
   5   3  -6    6.94    1.19
  -5   3   6   11.27    1.48
   5   3  -6    9.74    2.09
  -5   3   6    8.94    1.23
   5   3  -6   10.34    2.30
   5   3  -6   10.56    1.57
   5   3  -6    8.45    1.61
   4  -3  -6    6.99    1.13
   4  -3  -6    4.80    3.29
   4  -3  -6   11.44    1.47
  -4  -3   6   10.22    1.78
  -4  -3   6   10.08    1.52
   4  -3  -6    8.21    1.60
  -4  -3   6    9.97    1.40
   4  -3  -6    6.87    1.18
   4  -3  -6    8.66    1.71
  -4   3   6    8.02    1.26
   4   3  -6    8.29    1.16
   4   3  -6    4.88    1.37
  -4   3   6    7.25    1.27
   4   3  -6    6.80    1.60
   4   3  -6    6.87    1.05
   3  -3  -6   55.35    4.45
  -3  -3   6   63.27    4.69
   3  -3  -6   47.98    4.39
  -3  -3   6   60.87    4.36
  -3  -3   6   43.64    8.44
   3  -3  -6   55.61    4.88
   3  -3  -6   58.44    4.41
   3  -3  -6   50.78    4.45
   3  -3  -6   50.00    6.88
  -3  -3   6   55.66    4.32
   3  -3  -6   58.27    4.61
   3   3  -6   55.98    4.64
  -3   3   6   61.25    4.69
   3   3  -6   48.38    4.58
  -3   3   6   58.57    4.52
   3   3  -6   55.16    4.59
   3   3  -6   63.75    4.97
  -3   3   6   61.64    4.67
  -3   3   6   57.46    4.53
   2  -3  -6   32.58    2.85
   2  -3  -6   30.16    3.55
   2  -3  -6   23.47    4.88
  -2  -3   6   31.08    2.58
   2  -3  -6   33.69    2.73
   2  -3  -6   33.11    2.86
  -2  -3   6   34.14    2.62
  -2  -3   6   31.93    2.99
   2  -3  -6   28.50    2.74
  -2   3   6   37.54    2.77
   2   3  -6   32.41    3.09
  -2   3   6   33.79    2.83
   2   3  -6   27.99    2.69
  -2   3   6   31.01    2.67
   2   3  -6   29.76    2.95
  -1  -3   6   18.10    2.17
  -1  -3   6   15.42    1.65
   1  -3  -6   17.35    1.95
   1  -3  -6   21.00    2.04
  -1  -3   6   16.99    1.62
   1  -3  -6   20.83    2.08
  -1   3   6   14.08    1.76
   1   3  -6   18.83    1.54
   1   3  -6   18.64    1.87
  -1   3   6   16.48    1.92
  -1   3   6   18.49    1.81
   1   3  -6   16.91    2.23
   0  -3   6    3.75    1.94
   0  -3  -6    2.57    1.10
   0  -3  -6    2.15    1.27
   0  -3   6   -0.11    1.40
   0  -3   6    0.80    0.98
   0  -3  -6    1.99    0.90
   0  -3   6    3.49    0.59
   0  -3  -6    1.33    1.20
   0  -3   6    1.96    1.42
   0   3   6    3.38    1.33
   0   3  -6   -0.09    1.50
   0   3  -6   -2.10    2.20
   0   3   6    0.86    0.53
   0   3  -6    1.29    0.73
   0   3   6    1.36    0.86
   0   3  -6    1.47    0.84
   0   3  -6    1.22    1.03
   0   3  -6    1.82    0.52
   0   3   6    2.05    0.59
   0   3  -6    1.23    0.54
  -1  -3  -6   24.71    2.60
  -1  -3  -6   19.83    2.05
   1  -3   6   22.50    2.19
  -1  -3  -6   23.91    2.31
   1  -3   6   23.12    2.58
  -1  -3  -6   21.13    1.97
  -1  -3  -6   19.87    2.67
   1  -3   6   22.81    2.46
  -1  -3  -6   23.09    2.06
  -1   3  -6   19.25    1.99
  -1   3  -6   17.79    2.45
   1   3   6   21.24    2.13
  -1   3  -6   20.87    1.85
   1   3   6   23.35    1.80
   1   3   6   21.33    2.27
   1   3   6   18.60    3.07
  -1   3  -6   20.66    3.08
  -2  -3  -6   28.79    4.27
   2  -3   6   30.80    3.07
   2  -3   6   28.94    2.86
  -2  -3  -6   32.09    3.05
  -2  -3  -6   33.42    2.69
   2  -3   6   30.95    3.30
  -2  -3  -6   31.56    2.61
  -2  -3  -6   33.68    2.78
   2  -3   6   36.56    3.17
   2  -3   6   26.35    3.78
  -2  -3  -6   37.34    3.69
   2   3   6   29.89    2.47
   2   3   6   27.03    3.09
  -2   3  -6   30.19    2.54
  -2   3  -6   29.10    2.47
  -2   3  -6   29.25    2.59
  -2   3  -6   31.59    2.75
   2   3   6   22.24    4.34
   2   3   6   26.28    2.71
  -2   3  -6   30.26    2.44
  -3  -3  -6   47.45    4.50
  -3  -3  -6   53.33    3.97
  -3  -3  -6   52.72    3.97
   3  -3   6   52.11    4.82
  -3  -3  -6   54.74    4.02
   3  -3   6   45.74    4.54
  -3  -3  -6   44.37    4.38
   3  -3   6   47.74    4.21
   3  -3   6   46.23    4.16
   3   3   6   42.62    4.10
  -3   3  -6   51.58    3.73
   3   3   6   36.63    4.07
  -3   3  -6   48.27    5.90
  -3   3  -6   52.49    3.89
  -3   3  -6   52.24    4.04
  -3   3  -6   46.78    3.71
   3   3   6   41.99    4.44
  -4  -3  -6    8.84    1.86
   4  -3   6   10.97    1.57
   4  -3   6   10.99    1.80
   4  -3   6   10.22    1.81
  -4  -3  -6   10.36    1.51
  -4  -3  -6    6.11    4.18
  -4  -3  -6   11.07    1.54
  -4   3  -6   11.36    1.70
  -4   3  -6    8.37    1.30
  -4   3  -6   10.39    1.47
  -4   3  -6    9.01    1.30
   4   3   6    6.08    1.54
   4   3   6    9.68    1.73
   4   3   6   11.43    1.80
  -5  -3  -6   10.36    1.43
  -5  -3  -6    8.80    1.28
   5  -3   6    7.34    1.65
   5  -3   6    5.21    1.42
  -5  -3  -6    6.53    3.42
  -5  -3  -6    7.13    1.39
  -5   3  -6    8.95    1.19
  -5   3  -6   10.90    1.35
   5   3   6    9.16    1.57
  -6  -3  -6    1.93    0.75
   6  -3   6    1.50    0.94
  -6  -3  -6    0.78    0.63
   6  -3   6    1.44    1.07
   6  -3   6    0.00    0.91
   6  -3   6    4.30    1.34
  -6   3  -6    2.59    0.73
   6   3   6    0.87    0.92
  -6   3  -6    1.57    0.59
   6   3   6    1.12    0.90
   6   3   6    0.30    0.52
   6  -4  -6    6.17    0.98
   6  -4  -6    8.83    1.59
   6  -4  -6    8.83    1.15
   6  -4  -6    8.59    1.60
  -6  -4   6   12.22    1.53
  -6  -4   6    9.53    1.23
   6   4  -6    9.58    1.34
   6   4  -6    9.89    1.69
  -6   4   6   14.24    1.78
  -6   4   6    9.98    1.41
   6   4  -6    9.22    1.73
   6   4  -6    9.84    1.41
   5  -4  -6    5.62    1.34
  -5  -4   6    4.96    0.89
   5  -4  -6    4.89    0.91
  -5  -4   6    6.69    0.94
   5  -4  -6    5.87    1.48
   5  -4  -6    4.97    1.01
  -5   4   6    6.49    0.94
   5   4  -6    5.62    1.05
   5   4  -6    3.77    1.02
   5   4  -6    3.46    0.86
   5   4  -6    7.41    1.73
   5   4  -6    5.45    1.41
   4  -4  -6   11.88    2.07
  -4  -4   6    9.64    1.30
   4  -4  -6   10.48    1.48
  -4  -4   6    9.79    2.06
   4  -4  -6    6.81    1.19
   4  -4  -6   13.25    2.25
   4   4  -6    6.03    1.55
  -4   4   6    5.88    1.20
   4   4  -6    8.19    1.08
  -3  -4   6    5.62    1.58
   3  -4  -6    6.52    1.60
  -3  -4   6    5.70    1.01
  -3  -4   6    5.75    0.97
   3  -4  -6    6.12    1.12
  -3   4   6    3.97    1.04
  -3   4   6    4.35    0.82
   3   4  -6    8.33    1.89
   3   4  -6    1.79    1.14
  -3   4   6    5.69    0.87
   3   4  -6    3.64    1.24
   3   4  -6    6.28    1.12
   3   4  -6    3.98    1.95
   2  -4  -6   27.59    2.92
   2  -4  -6   34.88    2.82
   2  -4  -6   31.85    2.79
   2  -4  -6   32.08    2.73
  -2  -4   6   30.12    4.71
   2  -4  -6   30.98    2.82
  -2  -4   6   26.33    2.80
  -2  -4   6   33.40    3.16
   2  -4  -6   36.05    3.71
   2   4  -6   29.72    2.59
   2   4  -6   36.31    3.12
  -2   4   6   28.84    2.56
   2   4  -6   27.03    3.14
  -2   4   6   27.52    2.69
   2   4  -6   31.07    2.54
  -2   4   6   30.30    2.53
  -1  -4   6   25.98    2.22
   1  -4  -6   22.26    2.49
   1  -4  -6   21.93    2.33
  -1  -4   6   21.31    3.04
   1  -4  -6   26.70    2.54
   1  -4  -6   29.35    2.40
  -1  -4   6   25.59    2.85
   1  -4  -6   21.52    4.85
  -1  -4   6   28.68    2.19
  -1  -4   6   27.42    2.44
   1   4  -6   23.45    2.17
  -1   4   6   23.94    2.22
   1   4  -6   23.29    2.11
  -1   4   6   25.23    2.31
  -1   4   6   26.83    2.08
   1   4  -6   20.74    2.29
   1   4  -6   21.38    1.95
   1   4  -6   17.45    2.80
  -1   4   6   25.54    2.06
   0  -4   6   40.21    3.62
   0  -4  -6   40.26    3.37
   0  -4  -6   42.18    3.58
   0  -4   6   38.52    3.66
   0  -4   6   40.92    3.77
   0  -4  -6   39.47    3.30
   0  -4  -6   38.91    3.36
   0   4   6   34.25    3.98
   0   4  -6   40.05    3.27
   0   4  -6   36.46    3.49
   0   4   6   41.39    3.36
   0   4   6   40.42    3.15
   0   4  -6   41.57    3.15
   0   4  -6   38.79    3.16
   0   4  -6   44.83    3.24
   0   4  -6   31.30    4.56
  -1  -4  -6   19.68    2.09
  -1  -4  -6   16.03    2.47
  -1  -4  -6   23.67    2.15
   1  -4   6   26.82    2.80
  -1  -4  -6   19.03    1.89
  -1  -4  -6   24.78    2.63
   1  -4   6   21.33    2.14
   1  -4   6   21.02    2.43
   1   4   6   17.44    2.37
  -1   4  -6   27.64    2.44
  -1   4  -6   22.42    2.09
   1   4   6   20.92    1.95
  -1   4  -6   24.44    1.97
  -1   4  -6   25.18    2.13
   1   4   6   19.06    2.49
  -1   4  -6   21.79    3.72
   2  -4   6   33.93    2.88
  -2  -4  -6   29.41    2.53
  -2  -4  -6   25.25    3.67
   2  -4   6   27.95    3.89
   2  -4   6   25.33    3.65
   2  -4   6   30.30    2.80
  -2  -4  -6   30.28    2.65
  -2  -4  -6   30.53    3.10
  -2  -4  -6   30.88    2.49
  -2   4  -6   28.50    5.15
   2   4   6   24.36    3.23
   2   4   6   30.97    2.87
  -2   4  -6   29.05    2.54
  -2   4  -6   31.83    2.86
   2   4   6   31.44    2.57
  -2   4  -6   30.24    2.53
  -2   4  -6   32.05    2.67
   3  -4   6    6.79    1.39
  -3  -4  -6    4.61    0.89
  -3  -4  -6    6.47    2.13
   3  -4   6    6.71    1.77
  -3  -4  -6    6.74    1.14
   3  -4   6    7.50    1.41
   3   4   6    6.30    1.72
  -3   4  -6    6.47    1.05
  -3   4  -6    5.42    1.13
  -3   4  -6    4.56    0.91
   3   4   6    5.33    1.27
  -3   4  -6    4.42    2.75
  -3   4  -6    4.60    0.86
   3   4   6    6.74    1.89
  -3   4  -6    6.61    1.54
   4  -4   6   13.82    2.18
   4  -4   6    9.15    1.79
  -4  -4  -6   10.29    1.57
   4  -4   6   13.78    2.88
   4  -4   6   12.74    1.79
  -4  -4  -6    9.98    1.44
   4  -4   6   13.49    1.91
  -4  -4  -6    9.02    3.65
   4   4   6    8.88    1.70
  -4   4  -6   11.97    1.74
   4   4   6   11.11    1.79
   4   4   6    8.48    1.69
  -4   4  -6   12.67    1.90
  -4   4  -6   10.15    1.36
  -4   4  -6    9.24    1.31
  -4   4  -6    8.80    3.44
  -5  -4  -6    4.78    0.94
   5  -4   6    5.10    1.32
  -5  -4  -6    4.78    0.90
   5  -4   6    5.28    1.41
   5  -4   6    5.04    1.30
  -5  -4  -6    5.35    0.94
  -5   4  -6    5.38    1.17
   5   4   6    3.12    1.21
   5   4   6    2.83    1.27
   5   4   6    5.26    1.02
  -5   4  -6    5.61    1.09
  -5   4  -6    6.60    0.89
  -6  -4  -6    8.74    1.35
   6  -4   6    5.36    1.69
  -6  -4  -6   10.24    1.28
   6   4   6    4.42    1.17
  -6   4  -6    7.04    1.11
   6   4   6    7.10    1.33
  -6   4  -6    7.84    1.15
   6  -5  -6    3.53    1.23
   6  -5  -6    3.15    1.13
   6  -5  -6    2.32    0.69
   6  -5  -6    3.18    0.74
   6   5  -6    3.67    1.10
   6   5  -6    5.23    0.89
   6   5  -6    4.49    0.82
   5  -5  -6   10.36    1.46
   5  -5  -6   13.19    2.21
  -5  -5   6   11.89    1.47
   5  -5  -6   11.05    1.45
   5  -5  -6   15.30    2.56
   5   5  -6   14.07    2.47
   5   5  -6   11.24    1.66
   5   5  -6    8.46    1.42
  -5   5   6   14.69    1.52
  -5   5   6   10.84    1.58
   4  -5  -6   38.92    3.28
  -4  -5   6   39.24    3.28
   4  -5  -6   41.03    3.80
   4  -5  -6   41.82    3.67
   4  -5  -6   38.82    3.27
  -4  -5   6   36.78    3.24
   4   5  -6   36.58    3.25
  -4   5   6   37.71    3.45
  -4   5   6   41.48    3.20
   4   5  -6   30.49    3.51
   4   5  -6   37.86    3.69
  -4   5   6   40.57    3.14
   3  -5  -6   16.06    2.53
   3  -5  -6   13.65    1.73
   3  -5  -6   14.01    2.12
  -3  -5   6   20.84    2.63
   3  -5  -6   17.09    1.78
  -3  -5   6   16.23    1.59
   3  -5  -6   12.21    1.76
  -3  -5   6   16.13    1.75
  -3   5   6   16.91    2.03
   3   5  -6   13.01    2.27
   3   5  -6   15.29    2.00
   3   5  -6   16.47    2.18
  -3   5   6   17.38    1.66
  -3   5   6   13.80    1.63
  -2  -5   6   26.75    3.69
   2  -5  -6   21.12    3.99
   2  -5  -6   27.83    2.51
  -2  -5   6   24.08    3.35
   2  -5  -6   29.84    2.62
   2  -5  -6   29.28    2.99
  -2  -5   6   27.32    2.42
  -2  -5   6   27.15    2.35
   2  -5  -6   30.41    2.63
  -2   5   6   25.83    2.27
  -2   5   6   22.93    2.44
  -2   5   6   25.58    2.28
   2   5  -6   27.25    2.35
  -2   5   6   30.39    2.57
  -1  -5   6   -3.05    4.91
   1  -5  -6    1.65    1.57
   1  -5  -6    2.60    0.97
   1  -5  -6    5.45    1.61
  -1  -5   6    5.09    1.10
   1  -5  -6    3.20    1.16
  -1  -5   6   -0.62    2.63
  -1  -5   6    3.66    0.70
   1  -5  -6    3.91    1.06
   1  -5  -6    1.36    2.14
   1  -5  -6    3.68    1.03
  -1  -5   6    2.86    0.88
  -1  -5   6    4.89    1.37
  -1   5   6    4.46    1.11
   1   5  -6    4.27    0.90
   1   5  -6    3.91    0.64
  -1   5   6    5.90    1.59
  -1   5   6    2.84    0.73
  -1   5   6    3.41    0.77
   1   5  -6    4.01    0.78
   1   5  -6    3.50    1.96
   1   5  -6    2.93    0.93
   1   5  -6    0.88    1.73
   1   5  -6   -1.26    4.46
   0  -5  -6    0.77    0.94
   0  -5   6   -0.61    1.20
   0  -5  -6   -1.35    1.07
   0  -5  -6   -1.95    2.08
   0  -5  -6    0.06    0.87
   0  -5  -6    0.15    1.02
   0  -5  -6   -0.18    2.24
   0  -5   6    0.06    0.87
   0   5  -6   -0.37    1.31
   0   5  -6   -0.46    1.57
   0   5   6    1.68    1.11
   0   5  -6   -0.17    1.04
   0   5   6   -0.51    0.61
   0   5  -6    0.40    0.58
   0   5  -6    0.38    0.67
  -1  -5  -6    6.06    5.19
   1  -5   6    3.65    2.01
  -1  -5  -6    3.87    1.20
  -1  -5  -6    1.60    1.26
  -1  -5  -6    1.55    1.77
  -1  -5  -6    2.08    0.77
   1  -5   6    4.01    1.91
   1  -5   6    4.17    1.02
  -1  -5  -6    3.75    1.00
   1   5   6    1.80    0.82
  -1   5  -6    2.43    1.25
  -1   5  -6    2.46    0.65
  -1   5  -6    1.07    1.83
   1   5   6    4.27    2.01
   1   5   6    2.18    0.98
  -1   5  -6    2.55    0.79
   1   5   6    3.18    1.52
  -1   5  -6    2.62    0.77
   1   5   6    2.57    0.67
   2  -5   6   29.25    2.81
  -2  -5  -6   25.25    3.35
  -2  -5  -6   30.57    2.65
  -2  -5  -6   28.26    2.49
  -2  -5  -6   29.31    3.36
  -2  -5  -6   29.33    2.83
  -2  -5  -6   25.93    2.41
   2  -5   6   33.62    3.60
   2  -5   6   28.54    2.81
  -2   5  -6   25.00    4.97
   2   5   6   27.65    2.45
  -2   5  -6   35.40    3.07
  -2   5  -6   28.23    2.87
  -2   5  -6   26.53    2.44
   2   5   6   28.22    2.86
  -2   5  -6   26.51    2.45
   2   5   6   30.93    3.89
  -3  -5  -6   15.68    1.52
  -3  -5  -6    8.80    2.65
   3  -5   6    9.20    1.88
   3  -5   6   14.13    1.96
  -3  -5  -6   16.61    1.73
  -3  -5  -6   13.94    1.59
   3  -5   6   12.50    1.82
   3  -5   6   10.78    1.95
   3  -5   6   12.72    2.28
   3   5   6   12.50    1.69
   3   5   6    9.07    1.68
  -3   5  -6   12.72    1.46
  -3   5  -6   16.67    1.81
  -3   5  -6   13.77    2.10
  -3   5  -6   14.18    1.49
   4  -5   6   51.19    4.90
  -4  -5  -6   41.99    3.64
  -4  -5  -6   48.36    3.75
   4  -5   6   40.32    4.05
  -4  -5  -6   44.40    3.64
   4  -5   6   50.58    4.93
   4  -5   6   41.64    4.05
  -4   5  -6   35.66    3.24
   4   5   6   32.76    5.42
   4   5   6   42.74    3.58
  -4   5  -6   34.50    6.07
  -4   5  -6   41.18    4.18
  -4   5  -6   46.70    3.49
  -4   5  -6   39.32    3.24
   5  -5   6   13.96    2.09
   5  -5   6   13.59    2.07
  -5  -5  -6   11.64    1.51
   5  -5   6   13.58    1.90
  -5   5  -6   17.15    2.12
  -5   5  -6   16.68    1.72
   5   5   6   14.37    1.69
  -5   5  -6   11.01    1.59
   5   5   6    9.05    1.78
  -5   5  -6   12.78    1.42
   6  -5   6    2.17    0.90
   6  -5   6    2.06    0.88
   6  -5   6    2.84    1.10
   6   5   6    1.74    0.60
  -6   5  -6    3.96    1.61
   6   5   6   -0.97    1.28
  -6  -6   6    6.14    0.79
   6  -6  -6    4.72    1.15
   6  -6  -6    5.69    1.29
   6   6  -6    4.28    0.85
   6   6  -6    5.95    0.99
   6   6  -6    5.37    1.05
   5  -6  -6    1.50    1.18
   5  -6  -6    2.49    0.84
  -5  -6   6    3.68    0.90
   5  -6  -6    2.93    0.78
  -5  -6   6    3.06    0.98
   5  -6  -6    2.78    1.24
  -5   6   6    2.75    0.71
   5   6  -6    2.63    0.73
   5   6  -6    1.01    1.12
  -5   6   6    3.92    0.88
   4  -6  -6    1.71    0.86
  -4  -6   6    2.37    1.11
  -4  -6   6   -1.24    3.10
   4  -6  -6    0.59    1.29
   4  -6  -6    1.03    1.28
   4  -6  -6    1.43    0.86
  -4  -6   6    3.28    0.89
   4   6  -6    2.94    1.11
   4   6  -6    0.93    1.27
  -4   6   6    1.41    0.75
   4   6  -6    0.43    0.91
  -4   6   6    2.80    2.06
   3  -6  -6    9.58    1.49
  -3  -6   6   11.78    1.55
   3  -6  -6   12.22    1.60
   3  -6  -6    7.69    1.70
  -3  -6   6    4.85    3.30
   3  -6  -6    9.77    1.39
  -3  -6   6   12.94    1.44
   3  -6  -6    9.70    1.80
  -3  -6   6   10.22    2.96
   3   6  -6    8.92    1.40
  -3   6   6   12.63    1.90
  -3   6   6   10.01    1.37
   3   6  -6   10.35    1.96
  -2  -6   6   10.62    1.62
   2  -6  -6    6.20    1.67
   2  -6  -6    7.11    1.13
  -2  -6   6   10.35    2.04
  -2  -6   6    7.62    1.09
   2  -6  -6    5.52    1.61
  -2  -6   6    6.68    2.55
   2  -6  -6    7.51    1.18
   2  -6  -6    7.01    1.16
  -2   6   6    5.83    0.93
  -2   6   6    8.20    1.24
  -2   6   6    7.70    1.41
   2   6  -6    4.33    1.27
   2   6  -6    6.96    0.95
   2   6  -6    5.30    1.33
   2   6  -6    6.76    1.58
   1  -6  -6   54.22    4.62
   1  -6  -6   49.97    4.13
   1  -6  -6   54.17    4.20
  -1  -6   6   43.32    5.31
  -1  -6   6   51.36    4.22
   1   6  -6   51.76    4.14
   1   6  -6   54.56    4.19
   1   6  -6   51.68    4.34
   1   6  -6   60.14    4.38
  -1   6   6   49.53    4.25
  -1   6   6   57.21    4.55
  -1   6   6   51.82    4.23
   0  -6   6    9.07    2.59
   0  -6  -6   10.55    1.87
   0  -6   6   15.81    1.81
   0  -6   6   13.32    2.25
   0  -6  -6   10.56    1.73
   0  -6  -6   12.49    1.94
   0  -6  -6   17.97    2.72
   0  -6  -6   14.46    2.38
   0  -6   6   11.78    3.02
   0   6   6   13.83    2.13
   0   6   6    8.61    1.68
   0   6   6   11.18    1.38
   0   6  -6   10.92    1.43
   0   6  -6    9.77    2.07
   0   6  -6   11.78    1.47
   1  -6   6   58.46    4.63
  -1  -6  -6   59.51    4.35
   1  -6   6   54.76    5.34
  -1  -6  -6   51.06    4.65
   1  -6   6   54.71    4.59
  -1  -6  -6   51.17    4.51
  -1   6  -6   49.72    3.96
   1   6   6   46.38    4.24
   1   6   6   58.36    4.00
   1   6   6   44.23    5.57
  -1   6  -6   48.08    4.17
   1   6   6   53.06    4.00
  -1   6  -6   42.30    5.77
  -1   6  -6   50.39    3.98
  -1   6  -6   52.29    4.42
   1   6   6   53.09    4.65
   2  -6   6    6.14    1.94
  -2  -6  -6    4.26    1.35
   2  -6   6    7.19    1.49
   2  -6   6    3.68    1.12
   2  -6   6    2.30    1.79
   2  -6   6    0.88    1.97
  -2  -6  -6    1.18    2.88
  -2  -6  -6    5.26    1.44
   2   6   6    5.64    1.39
  -2   6  -6    5.23    0.96
  -2   6  -6    3.03    2.93
  -2   6  -6    5.67    1.62
  -2   6  -6    5.33    1.03
  -2   6  -6    5.64    0.92
   2   6   6    4.12    0.94
  -3  -6  -6    8.98    1.41
  -3  -6  -6   12.03    1.80
   3  -6   6    9.79    2.07
  -3  -6  -6    7.06    2.08
   3  -6   6    8.69    1.40
   3  -6   6   12.48    1.85
   3  -6   6    5.76    1.70
  -3  -6  -6    9.77    1.38
  -3   6  -6   10.07    3.72
  -3   6  -6    9.12    1.38
  -3   6  -6   10.42    1.60
   3   6   6   10.34    1.45
  -3   6  -6   12.21    1.72
   3   6   6   10.58    1.74
  -3   6  -6   11.29    1.87
  -4  -6  -6    1.06    1.09
  -4  -6  -6   -1.76    4.55
   4  -6   6   -0.57    2.12
   4  -6   6    0.84    1.29
   4  -6   6    0.89    1.49
  -4  -6  -6   -0.11    1.00
  -4  -6  -6    0.29    0.68
   4  -6   6   -0.48    1.98
   4   6   6    0.36    2.43
  -4   6  -6    1.69    0.69
  -4   6  -6    3.39    3.61
  -4   6  -6    0.12    0.67
   4   6   6    0.72    1.12
  -4   6  -6   -0.04    1.04
  -4   6  -6   -0.14    2.63
   5  -6   6    1.66    0.96
  -5  -6  -6    4.54    1.82
  -5  -6  -6    1.54    0.64
   5  -6   6    0.59    1.27
  -5  -6  -6    1.67    0.75
   5  -6   6   -0.27    1.00
  -5   6  -6    1.70    0.61
   5   6   6    0.42    0.50
  -5   6  -6    4.09    1.17
   5   6   6    1.08    0.69
   6  -6   6    3.24    1.12
  -6  -6  -6    5.89    1.19
   6  -6   6    2.98    0.81
   6  -6   6    3.37    0.90
   6   6   6    2.74    0.67
   5  -7  -6    2.82    1.26
   5  -7  -6    1.50    0.68
  -5  -7   6   -0.48    1.82
   5  -7  -6    2.30    0.75
   5  -7  -6    1.42    0.98
  -5   7   6    1.61    1.00
   5   7  -6    2.67    1.67
   5   7  -6    1.87    0.74
  -4  -7   6    7.16    1.27
   4  -7  -6    5.53    1.03
   4  -7  -6    6.08    1.42
   4  -7  -6    3.66    0.92
   4  -7  -6    5.00    1.37
   4   7  -6    6.12    0.99
  -4   7   6    7.03    1.21
   4   7  -6    4.72    1.29
  -4   7   6    5.92    0.98
   3  -7  -6   16.19    2.82
   3  -7  -6   16.54    2.26
  -3  -7   6   24.32    2.08
   3  -7  -6   18.15    2.46
  -3  -7   6   22.33    3.91
  -3  -7   6   22.14    2.40
  -3   7   6   21.41    2.07
  -3   7   6   19.62    1.99
   3   7  -6   22.06    2.48
   2  -7  -6    7.92    1.83
   2  -7  -6    9.81    1.33
   2  -7  -6    7.19    1.22
   2  -7  -6    8.76    1.81
  -2  -7   6    9.39    1.94
   2  -7  -6    9.55    1.56
   2   7  -6    9.89    1.80
  -2   7   6    8.77    1.30
  -2   7   6   10.28    1.33
   2   7  -6   11.49    1.61
  -2   7   6    8.53    1.74
   2   7  -6   10.41    1.16
   1  -7  -6    3.57    1.03
  -1  -7   6    5.12    1.54
   1  -7  -6    6.51    1.80
   1  -7  -6    7.69    1.22
   1  -7  -6    4.02    1.74
  -1  -7   6    5.04    1.41
  -1   7   6    5.16    1.52
   1   7  -6    4.67    0.86
   1   7  -6    6.45    1.29
  -1   7   6    4.43    0.97
  -1   7   6    4.24    0.94
   1   7  -6    5.29    1.28
   1   7  -6    5.41    0.87
   1   7  -6    4.99    1.09
   0  -7   6   12.68    2.03
   0  -7  -6    9.09    1.45
   0  -7  -6   10.22    1.42
   0  -7   6   11.71    1.78
   0   7  -6    8.57    1.33
   0   7   6    9.32    1.26
   0   7   6    7.88    1.31
   0   7  -6   11.67    1.47
   0   7  -6    9.92    1.60
   0   7  -6    9.26    2.27
   0   7  -6   11.99    1.91
   1  -7   6    0.03    2.59
   1  -7   6    1.96    1.84
  -1  -7  -6   -2.35    3.65
   1  -7   6    2.91    2.00
   1  -7   6    4.06    1.21
  -1  -7  -6    3.92    1.19
   1   7   6    0.37    3.21
  -1   7  -6    4.22    1.73
  -1   7  -6    3.70    0.83
  -1   7  -6    3.38    0.83
   1   7   6    3.50    0.91
   2  -7   6   10.21    1.96
   2  -7   6   10.48    1.49
   2  -7   6    9.39    1.96
  -2  -7  -6   12.80    2.12
   2  -7   6   12.13    2.61
  -2  -7  -6    9.58    1.68
  -2   7  -6    8.72    1.36
  -2   7  -6    8.99    1.28
   2   7   6    8.24    1.99
   2   7   6   11.49    1.47
  -2   7  -6    9.65    1.90
   2   7   6    6.90    1.31
  -2   7  -6    3.24    3.36
  -2   7  -6    7.79    1.13
   3  -7   6   27.85    3.90
  -3  -7  -6   26.54    2.83
   3   7   6   26.13    2.59
  -3   7  -6   15.62    4.50
   3   7   6   23.34    2.16
  -3   7  -6   20.46    2.07
  -3   7  -6   22.63    2.12
  -4  -7  -6    6.38    2.71
   4  -7   6    3.36    1.47
   4  -7   6    2.95    1.22
   4  -7   6    4.08    1.32
  -4   7  -6    5.62    0.87
   4   7   6    4.70    1.17
  -4   7  -6    5.55    1.15
  -4   7  -6    3.01    1.08
   4   7   6    3.77    1.13
  -5  -7  -6    4.44    0.98
   5  -7   6    2.41    0.95
   5  -7   6    1.68    1.38
  -5  -7  -6    5.73    1.18
  -5   7  -6    3.42    0.69
  -5   7  -6    3.86    0.72
   5   7   6    2.05    0.80
  -5   7  -6    5.60    1.21
  -5  -8   6    3.08    0.95
   5  -8  -6    1.68    0.62
   5  -8  -6    3.11    1.21
   5  -8  -6    1.76    0.90
  -5   8   6    1.73    0.70
   5   8  -6    2.40    0.69
   4  -8  -6    2.58    0.79
   4  -8  -6    1.43    0.98
   4  -8  -6    3.41    1.35
  -4  -8   6    3.90    1.09
  -4   8   6    2.82    1.33
  -4   8   6    3.35    0.71
  -4   8   6    2.93    0.81
   4   8  -6    3.10    1.23
   3  -8  -6    4.75    1.71
   3  -8  -6    7.70    1.12
  -3  -8   6   11.45    2.19
   3  -8  -6    7.68    1.87
   3  -8  -6    5.07    1.44
   3   8  -6    5.89    1.03
   3   8  -6    7.18    1.62
  -3   8   6    7.11    1.07
  -3   8   6    8.12    1.20
  -3   8   6    6.78    1.31
  -2  -8   6   33.61    3.14
   2  -8  -6   30.30    2.87
  -2  -8   6   28.86    4.03
   2   8  -6   28.25    2.96
  -2   8   6   25.31    3.51
  -2   8   6   26.22    2.38
   2   8  -6   26.06    2.56
   1  -8  -6   14.65    1.89
   1  -8  -6   20.64    3.35
   1  -8  -6   14.55    2.17
  -1  -8   6   13.53    2.44
  -1  -8   6   14.92    2.44
   1  -8  -6   15.28    1.94
  -1   8   6   15.32    1.63
   1   8  -6   15.14    1.65
  -1   8   6   13.49    2.25
   1   8  -6   15.23    1.80
   1   8  -6   14.77    2.30
  -1   8   6   18.26    1.92
   1   8  -6   14.66    1.60
   0  -8   6   14.79    2.50
   0  -8  -6   19.11    2.79
   0  -8   6   19.85    2.38
   0  -8  -6   16.58    2.18
   0   8   6   17.36    1.83
   0   8  -6   20.10    3.13
   0   8  -6   20.36    2.39
   0   8  -6   16.78    1.74
   0   8  -6   15.72    1.78
   0   8   6   18.11    1.98
  -1  -8  -6   17.50    2.29
   1  -8   6   17.77    2.23
   1   8   6   13.24    1.67
  -1   8  -6   14.19    1.62
  -1   8  -6   14.02    1.64
  -1   8  -6   16.25    2.52
   2  -8   6   22.50    3.44
   2  -8   6   25.55    3.08
  -2  -8  -6   20.33    3.32
  -2  -8  -6   27.51    2.82
   2   8   6   16.21    3.04
  -2   8  -6   27.10    2.31
  -2   8  -6   23.71    2.16
  -2   8  -6   20.19    4.02
   2   8   6   25.28    2.60
   3  -8   6    2.34    1.29
   3  -8   6    5.69    1.94
   3  -8   6    4.84    0.96
  -3  -8  -6    4.74    1.74
   3  -8   6    7.73    2.50
   3  -8   6    3.16    1.25
  -3   8  -6    5.82    0.91
   3   8   6    6.02    2.20
  -3   8  -6    4.51    0.96
   3   8   6    3.20    1.50
   4  -8   6    1.94    1.04
   4  -8   6    1.80    1.03
  -4  -8  -6    2.35    2.42
   4   8   6    1.86    0.97
  -4   8  -6    3.27    0.78
  -4   8  -6    3.02    0.66
  -4   8  -6    2.10    0.95
   5  -8   6    1.40    0.82
  -5  -8  -6    3.06    1.06
   5  -8   6    0.70    0.78
  -5   8  -6    2.66    0.61
   5   8   6    2.19    0.83
  -5   8  -6    1.80    0.62
  -5   8  -6    1.64    1.10
   4  -9  -6    1.42    1.24
   4  -9  -6    1.73    0.92
  -4   9   6    3.34    1.05
  -4   9   6    2.25    1.22
   4   9  -6    1.19    0.94
  -3  -9   6    8.71    2.93
   3  -9  -6    4.88    1.51
   3  -9  -6    4.16    0.94
   3  -9  -6    2.92    1.78
   3  -9  -6    2.37    1.06
  -3   9   6    6.75    1.05
  -3   9   6    8.27    1.65
   3   9  -6    4.49    1.03
   2  -9  -6    5.44    1.38
   2  -9  -6    8.87    1.65
   2  -9  -6    5.82    1.37
   2  -9  -6    7.67    1.15
  -2   9   6    9.99    1.37
  -2   9   6   11.99    1.71
   2   9  -6   10.62    1.40
   1  -9  -6    3.41    0.92
  -1  -9   6    3.19    1.98
  -1   9   6    6.39    1.04
   1   9  -6    3.73    1.67
  -1   9   6    6.27    1.16
   1   9  -6    5.92    0.93
   1   9  -6    7.99    1.25
   0  -9   6   19.22    3.80
   0  -9   6   24.94    2.75
   0  -9  -6   29.01    2.61
   0   9   6   26.76    2.43
   0   9  -6   25.94    2.34
   0   9  -6   27.37    2.51
   0   9   6   21.62    3.95
   0   9  -6   25.87    2.33
   1  -9   6    4.49    1.15
  -1  -9  -6    3.45    1.14
   1  -9   6    4.03    4.62
  -1   9  -6    4.78    0.94
  -1   9  -6    5.42    1.02
  -1   9  -6    3.27    0.84
   1   9   6    5.19    1.27
   1   9   6    4.33    0.89
  -1   9  -6    2.01    2.23
   1   9   6    6.21    0.91
  -2  -9  -6    8.43    1.43
   2  -9   6    6.91    1.57
   2  -9   6    7.22    1.39
  -2  -9  -6    7.75    1.62
   2  -9   6    7.97    1.23
  -2   9  -6    5.80    1.00
   2   9   6    9.63    1.24
  -2   9  -6    9.38    1.23
   2   9   6    7.32    2.54
   3  -9   6    4.11    1.25
  -3  -9  -6    3.28    1.62
   3  -9   6    4.61    1.18
   3   9   6    5.90    1.53
  -3   9  -6    4.00    0.92
  -3   9  -6    6.31    0.94
   3   9   6    5.55    1.15
  -4  -9  -6   -3.33    3.26
   4  -9   6    1.15    1.51
  -4  -9  -6    3.19    1.31
  -4   9  -6    1.85    0.89
  -4   9  -6    0.96    0.61
   4   9   6    1.22    1.10
  -4   9  -6    2.75    1.08
   4 -10  -6    0.81    0.72
   4 -10  -6    1.45    1.19
  -4  10   6    2.21    1.42
   3 -10  -6    4.45    1.51
   3 -10  -6    4.94    2.24
  -3  10   6    6.09    1.06
   2 -10  -6   -0.47    1.69
   2 -10  -6    5.59    1.56
   2 -10  -6    2.44    1.16
  -2 -10   6    5.38    1.50
  -2  10   6    3.71    0.84
  -2  10   6    4.77    0.97
   1 -10  -6    2.60    0.87
  -1 -10   6    1.93    1.68
  -1 -10   6    1.64    1.16
   1 -10  -6    1.96    1.64
   1 -10  -6    5.83    1.92
   1  10  -6    1.76    1.04
   1  10  -6    1.41    0.72
  -1  10   6   -0.12    0.82
   0 -10  -6   11.20    2.43
   0 -10  -6    6.00    1.12
   0 -10   6    7.91    1.36
   0 -10   6    8.91    1.76
   0  10   6    7.10    1.06
   0  10  -6    8.42    1.26
   0  10  -6    8.53    1.31
   1 -10   6    0.23    1.36
  -1 -10  -6    1.80    0.92
   1 -10   6    2.35    1.01
  -1  10  -6    1.24    0.70
  -1  10  -6    2.41    0.92
   1  10   6    1.14    0.98
   1  10   6    1.66    0.67
   1  10   6    0.52    0.70
   2 -10   6    3.54    1.12
   2 -10   6    3.23    1.03
  -2 -10  -6    4.42    1.20
   2 -10   6    2.56    1.23
   2  10   6    2.59    1.04
  -2  10  -6    6.09    1.03
   2  10   6    2.85    2.40
   2  10   6    3.89    0.75
  -2  10  -6    3.61    0.84
  -2  10  -6    4.90    0.87
   3 -10   6    6.37    1.63
  -3 -10  -6    7.49    1.50
  -3 -10  -6    4.92    1.28
   3 -10   6    2.37    1.86
  -3  10  -6   10.46    1.31
  -3  10  -6    8.38    1.02
   3  10   6    6.68    1.18
   4 -10   6    2.05    0.67
   4 -10   6    1.63    0.79
  -4 -10  -6    4.30    1.38
  -4 -10  -6    3.76    1.85
   4  10   6    1.59    1.10
  -4  10  -6    4.32    0.83
  -4  10  -6    3.62    0.64
  -3 -11   6    2.87    1.47
   3 -11  -6    1.21    1.35
   3 -11  -6   -0.17    0.80
  -3  11   6   -0.04    0.72
  -3  11   6    0.20    0.55
  -2 -11   6    4.25    1.40
   2 -11  -6    1.30    0.97
   2 -11  -6    2.53    1.14
  -2  11   6    3.42    0.82
  -2  11   6    4.48    0.80
   1 -11  -6   -1.68    2.79
  -1 -11   6    1.90    1.35
   1 -11  -6    0.49    1.30
  -1 -11   6    0.93    1.21
   1 -11  -6    1.52    2.38
   1  11  -6    3.72    1.28
  -1  11   6    1.34    0.69
  -1  11   6    3.27    0.96
  -1  11   6    2.35    0.92
   0 -11   6    5.95    1.15
   0 -11   6    5.16    1.68
   0 -11  -6    6.03    1.02
   0  11  -6    5.63    1.15
   0  11   6    5.99    1.08
   0  11   6    4.53    0.84
   0  11  -6    6.82    0.86
   1 -11   6    1.79    0.93
   1 -11   6    2.43    2.04
  -1 -11  -6    1.40    0.93
   1  11   6    2.32    0.96
  -1  11  -6    1.86    0.68
  -1  11  -6    2.45    0.69
   1  11   6    1.24    0.65
  -2 -11  -6    4.01    1.13
   2 -11   6    2.02    0.95
   2 -11   6    3.08    1.07
   2  11   6    3.98    1.02
   2  11   6    4.01    0.71
  -2  11  -6    3.47    0.77
  -2  11  -6    5.59    0.82
   2  11   6    5.77    2.86
  -2  11  -6    3.10    1.20
   3 -11   6    0.55    0.71
   3 -11   6    0.00    0.76
  -3 -11  -6    2.08    1.21
  -3  11  -6    0.14    0.61
   3  11   6   -1.27    1.71
  -3  11  -6    0.37    0.65
  -3  11  -6    1.17    0.56
  -2  12   6    6.13    0.91
  -2  12   6    5.24    1.00
  -1 -12   6    5.53    1.10
  -1 -12   6    3.41    2.23
   1 -12  -6    3.45    0.89
  -1  12   6    7.34    1.11
  -1  12   6    8.41    1.27
  -1  12   6    6.89    0.98
   1  12  -6    8.71    0.94
   0 -12   6    0.97    0.81
   0 -12  -6    0.02    0.81
   0 -12  -6    0.71    0.71
   0  12   6    0.33    0.72
   0  12  -6    3.44    1.56
   0  12   6    0.23    0.54
   0  12   6    1.46    0.97
   0  12  -6    1.14    0.59
  -1 -12  -6    6.14    1.02
   1 -12   6    7.25    1.13
   1 -12   6    7.22    0.89
   1 -12   6    4.15    1.08
  -1  12  -6    6.23    0.77
  -1  12  -6    5.81    1.03
  -1  12  -6    3.96    1.00
   1  12   6    6.11    1.10
   1  12   6    8.16    1.21
   2 -12   6    4.88    1.24
   2 -12   6    2.89    1.05
  -2  12  -6    6.04    0.80
  -2  12  -6    4.78    0.70
   6   0  -7   10.90    1.33
  -6   0   7   12.85    1.58
   6   0  -7   10.15    2.71
   6   0  -7   10.11    1.35
  -6   0   7   11.20    1.41
  -5   0   7    1.98    0.82
  -5   0   7    1.00    0.87
  -5   0   7    2.90    2.45
   5   0  -7    2.15    1.35
   5   0  -7   -0.31    0.77
   5   0  -7    0.99    0.79
   5   0  -7    0.20    1.06
   4   0  -7    7.12    1.04
   4   0  -7    6.12    1.08
   4   0  -7    4.74    1.02
  -4   0   7    4.81    0.91
   4   0  -7    5.23    1.54
  -4   0   7    5.22    1.41
  -3   0   7   14.15    1.93
   3   0  -7   18.71    2.32
  -3   0   7   13.37    1.97
   3   0  -7   13.58    1.82
  -3   0   7   14.67    1.64
  -3   0   7   13.48    1.58
   3   0  -7   13.32    1.97
   3   0  -7   12.94    2.05
   3   0  -7   14.90    1.71
  -2   0   7    0.62    0.64
   2   0  -7   -0.60    1.30
   2   0  -7   -1.49    1.11
   2   0  -7    3.77    1.99
   2   0  -7    1.35    1.00
  -2   0   7    0.17    0.62
  -2   0   7    0.72    0.95
  -2   0   7   -2.53    2.68
   2   0  -7    1.03    0.86
  -2   0   7    1.75    1.23
   2   0  -7    0.03    1.10
  -1   0   7   11.29    1.69
  -1   0   7   11.08    1.32
  -1   0   7   12.73    1.91
   1   0  -7    9.11    1.42
  -1   0   7   11.78    1.23
   1   0  -7    9.64    1.41
   1   0  -7    9.34    1.43
   0   0  -7    2.34    1.23
   0   0   7    3.99    0.68
   0   0   7    5.48    1.16
   0   0  -7    5.87    1.20
   0   0   7    3.48    0.71
   0   0  -7    1.24    2.01
   0   0  -7    2.86    0.87
   0   0   7    2.96    1.73
  -1   0  -7    5.65    1.98
  -1   0  -7    7.15    1.90
  -1   0  -7    5.63    1.77
   1   0   7    8.66    1.38
  -1   0  -7    7.30    1.18
   1   0   7    7.03    1.74
  -2   0  -7    0.80    1.36
  -2   0  -7    1.63    0.66
  -2   0  -7    1.22    0.83
  -2   0  -7   -0.49    2.07
   2   0   7    0.79    0.97
  -2   0  -7    2.96    1.78
  -2   0  -7    0.63    0.65
   2   0   7    0.34    1.16
  -2   0  -7    0.92    0.85
  -3   0  -7   13.58    1.61
  -3   0  -7   11.84    2.59
   3   0   7    9.89    1.71
  -3   0  -7   11.69    2.19
   3   0   7   14.86    2.00
  -3   0  -7   14.48    1.54
   4   0   7    8.09    1.31
  -4   0  -7    6.29    0.99
   4   0   7    7.87    1.67
   4   0   7    4.66    1.67
  -4   0  -7    5.74    1.93
  -4   0  -7    7.18    1.06
  -5   0  -7    2.18    0.69
   5   0   7    1.43    1.25
   5   0   7    0.63    1.12
   5   0   7    1.93    0.77
  -5   0  -7    1.25    0.82
   5   0   7    0.68    1.15
   5   0   7    0.72    1.00
   6   0   7   12.86    1.99
  -6   0  -7   13.89    1.47
   6   0   7   14.35    1.85
  -6   0  -7    9.42    1.45
  -6   0  -7   10.45    1.53
   6   0   7   15.86    1.73
   6   0   7   11.42    1.70
  -6  -1   7    4.17    0.81
   6  -1  -7    2.72    0.72
  -6  -1   7    4.80    1.04
   6  -1  -7    2.07    0.74
  -6  -1   7    2.23    1.83
   6  -1  -7    5.70    3.32
  -6   1   7    5.26    1.34
   5  -1  -7    7.53    1.10
  -5  -1   7    7.49    1.29
   5  -1  -7    7.63    1.08
   5  -1  -7    5.02    1.35
   5  -1  -7    7.40    1.60
   5   1  -7    7.03    1.66
   5   1  -7    4.59    1.31
   5   1  -7    8.08    1.22
   5   1  -7    6.07    0.97
   5   1  -7    3.99    1.29
   5   1  -7    8.49    1.11
   4  -1  -7   10.71    1.79
  -4  -1   7    9.79    1.46
  -4  -1   7    8.26    1.97
  -4  -1   7   11.95    1.71
   4  -1  -7   11.90    1.67
   4  -1  -7   13.33    1.55
   4  -1  -7   11.42    1.60
   4  -1  -7   15.79    2.28
  -4   1   7   10.76    1.40
  -4   1   7   10.60    1.69
   4   1  -7   10.93    1.65
  -4   1   7   10.64    1.84
  -4   1   7   10.60    1.72
   4   1  -7   11.28    1.51
   4   1  -7    8.51    2.29
   4   1  -7   12.96    1.58
   4   1  -7   11.64    1.83
  -3  -1   7   17.43    2.28
  -3  -1   7   16.32    1.64
   3  -1  -7   12.72    2.00
   3  -1  -7   15.75    2.11
   3  -1  -7   19.17    2.90
   3  -1  -7   13.36    1.83
   3  -1  -7   15.22    2.20
   3  -1  -7   13.99    1.83
  -3  -1   7   16.46    1.75
  -3  -1   7   16.07    2.11
   3   1  -7   16.61    1.93
   3   1  -7   19.32    2.40
  -3   1   7   16.20    2.29
   3   1  -7   15.13    1.90
   3   1  -7   16.17    2.19
   3   1  -7   18.81    2.09
  -3   1   7   18.51    2.07
  -3   1   7   15.58    1.76
  -3   1   7   15.67    1.76
   2  -1  -7    5.69    1.10
   2  -1  -7    6.09    1.11
  -2  -1   7    4.75    0.88
   2  -1  -7    3.93    1.38
  -2  -1   7    5.57    1.18
  -2  -1   7    4.57    1.45
   2  -1  -7    6.71    1.07
   2  -1  -7    5.46    1.31
  -2  -1   7    3.23    3.80
  -2   1   7    6.71    1.25
   2   1  -7    5.09    1.42
   2   1  -7    3.71    1.53
   2   1  -7    6.12    1.14
  -2   1   7    3.09    5.48
   2   1  -7    6.65    1.10
  -2   1   7    5.00    0.91
   2   1  -7    2.53    1.35
  -2   1   7    8.00    1.35
  -2   1   7    5.52    0.91
  -1  -1   7   23.79    2.55
   1  -1  -7   24.68    2.22
   1  -1  -7   25.52    2.39
   1  -1  -7   24.21    2.19
  -1  -1   7   23.24    2.02
   1  -1  -7   20.38    3.73
  -1  -1   7   20.19    2.22
   1  -1  -7   17.94    2.28
  -1   1   7   26.31    2.56
  -1   1   7   21.86    2.09
   1   1  -7   25.93    2.58
  -1   1   7   21.47    2.40
   1   1  -7   23.84    2.24
   1   1  -7   27.18    4.63
   1   1  -7   24.16    2.14
   0  -1  -7   21.25    2.38
   0  -1   7   20.52    2.94
   0  -1  -7   18.33    1.79
   0  -1   7   16.81    1.65
   0  -1   7   20.42    2.00
   0  -1  -7   16.05    1.86
   0   1   7   16.87    2.74
   0   1  -7   15.39    1.96
   0   1  -7   15.67    1.77
   0   1  -7   19.18    2.41
   0   1  -7   17.14    1.73
   0   1   7   17.18    1.99
   0   1   7   18.26    1.56
   0   1  -7   17.76    2.00
   0   1  -7   13.52    2.31
   0   1   7   13.35    2.60
  -1  -1  -7   27.35    3.11
  -1  -1  -7   17.20    3.01
  -1  -1  -7   21.83    2.94
  -1  -1  -7   25.30    2.16
   1  -1   7   24.05    2.32
   1  -1   7   31.92    3.88
  -1  -1  -7   24.03    2.13
  -1  -1  -7   24.08    2.04
   1  -1   7   21.97    2.80
  -1  -1  -7   21.66    2.27
  -1   1  -7   24.70    2.17
   1   1   7   24.45    2.46
  -1   1  -7   21.54    3.55
  -1   1  -7   24.97    2.07
  -1   1  -7   26.16    2.87
  -1   1  -7   20.74    2.79
  -1   1  -7   23.58    2.26
   1   1   7   21.01    2.19
  -1   1  -7   25.66    2.16
   1   1   7   23.58    3.12
   2  -1   7    6.15    1.43
  -2  -1  -7    6.81    1.82
   2  -1   7    8.49    1.60
  -2  -1  -7    5.39    1.85
  -2  -1  -7    5.28    0.92
   2  -1   7   10.81    1.92
  -2  -1  -7    6.80    1.17
  -2  -1  -7    1.45    2.56
  -2   1  -7    5.06    0.89
  -2   1  -7    6.78    1.82
  -2   1  -7    5.48    1.63
  -2   1  -7    6.10    1.12
  -2   1  -7    4.32    1.86
   2   1   7    5.43    0.90
  -2   1  -7    6.75    1.00
  -2   1  -7    6.33    0.92
   2   1   7    7.90    1.48
   3  -1   7   12.54    1.88
   3  -1   7    8.09    2.21
  -3  -1  -7   12.30    1.56
  -3  -1  -7   11.36    2.13
  -3  -1  -7   14.25    1.53
  -3  -1  -7   10.43    2.52
  -3  -1  -7   13.44    1.56
   3  -1   7   12.74    2.07
   3  -1   7    9.82    1.62
   3   1   7   10.45    2.98
  -3   1  -7   15.55    1.66
  -3   1  -7    9.80    2.61
   3   1   7   11.64    1.99
  -3   1  -7   13.94    2.00
  -3   1  -7   15.19    1.54
  -3   1  -7   11.85    1.96
  -3   1  -7   14.81    1.62
  -4  -1  -7   13.03    1.56
  -4  -1  -7   11.12    1.45
   4  -1   7   12.86    1.96
   4  -1   7   12.10    1.83
   4  -1   7    7.70    2.20
   4  -1   7   11.56    1.98
  -4  -1  -7    7.28    1.81
  -4  -1  -7    8.39    2.13
   4   1   7    8.61    2.17
  -4   1  -7   11.95    1.43
   4   1   7   17.03    3.13
  -4   1  -7    6.57    2.82
  -4   1  -7   11.16    1.48
  -4   1  -7   12.36    1.50
   4   1   7    6.96    1.57
  -4   1  -7    6.07    1.80
   4   1   7    7.12    1.40
  -4   1  -7   12.06    1.60
   5  -1   7    3.06    1.12
  -5  -1  -7    4.85    0.84
   5  -1   7    2.53    1.13
  -5  -1  -7    4.09    0.83
   5  -1   7    2.62    1.17
   5  -1   7    4.12    0.79
   5  -1   7    2.08    1.36
   5   1   7    4.76    1.27
   5   1   7    3.96    0.87
   5   1   7    5.95    1.62
  -5   1  -7    6.36    1.30
  -5   1  -7    4.81    0.93
   5   1   7    2.82    1.11
   6  -1   7    1.11    0.89
  -6  -1  -7    1.69    0.68
  -6  -1  -7    2.22    0.74
   6  -1   7    1.29    0.84
   6  -1   7    1.55    1.14
   6  -1   7    1.07    1.23
  -6   1  -7    1.16    0.65
   6   1   7   -0.02    0.78
   6   1   7    0.81    0.72
   6   1   7    0.69    0.88
  -6   1  -7    0.55    0.74
  -6  -2   7    5.59    1.81
  -6  -2   7    6.53    1.06
   6  -2  -7    4.90    0.84
   6  -2  -7    3.96    0.81
   6  -2  -7    4.54    1.16
   6  -2  -7    5.80    1.24
   6   2  -7    5.44    0.87
  -6   2   7    6.10    0.88
   6   2  -7    5.47    1.10
   6   2  -7    5.24    0.90
   5  -2  -7    1.09    1.07
  -5  -2   7    4.97    1.00
   5  -2  -7    3.48    1.39
   5  -2  -7    2.74    0.87
   5  -2  -7    1.88    0.79
   5   2  -7    3.21    0.82
  -5   2   7    1.00    0.80
   5   2  -7    2.70    1.19
   5   2  -7    1.82    0.76
   5   2  -7    2.89    0.83
   5   2  -7    1.37    1.05
   5   2  -7    0.17    1.69
  -5   2   7    3.10    0.84
  -4  -2   7   13.56    1.66
   4  -2  -7    9.15    1.91
   4  -2  -7    8.41    1.87
  -4  -2   7   10.69    1.43
  -4  -2   7    7.43    3.76
   4  -2  -7   13.12    1.59
   4  -2  -7    9.73    2.50
   4  -2  -7   11.46    1.70
   4   2  -7   10.60    1.65
   4   2  -7   14.00    2.27
  -4   2   7    9.97    1.49
  -4   2   7   12.47    1.56
   4   2  -7   12.12    2.15
   4   2  -7   12.60    1.97
   3  -2  -7   24.45    2.74
   3  -2  -7   29.48    2.62
  -3  -2   7   22.08    2.46
  -3  -2   7   25.11    2.75
  -3  -2   7   29.91    3.06
   3  -2  -7   29.27    2.56
  -3  -2   7   25.76    2.49
   3  -2  -7   30.04    2.62
   3  -2  -7   30.57    2.57
   3  -2  -7   30.20    3.43
  -3   2   7   24.11    2.90
  -3   2   7   24.01    2.37
  -3   2   7   25.36    2.62
  -3   2   7   25.22    2.39
   3   2  -7   26.42    2.57
   3   2  -7   27.73    2.51
   3   2  -7   29.28    2.66
   3   2  -7   34.41    3.77
   3   2  -7   25.16    2.86
  -2  -2   7   -3.16    5.90
  -2  -2   7    8.58    1.27
  -2  -2   7    6.60    1.56
   2  -2  -7    8.25    1.58
   2  -2  -7    6.06    1.36
  -2  -2   7    6.88    1.30
   2  -2  -7    5.31    1.21
   2  -2  -7    8.11    1.24
  -2  -2   7    7.67    1.22
   2  -2  -7   10.77    1.57
  -2   2   7    8.34    1.19
  -2   2   7    7.45    1.20
   2   2  -7    7.60    1.23
  -2   2   7    6.26    1.26
   2   2  -7    4.49    1.38
  -2   2   7    7.53    1.38
   2   2  -7    7.38    1.19
  -1  -2   7    3.96    2.14
   1  -2  -7    5.99    1.17
  -1  -2   7    6.30    1.15
   1  -2  -7    6.71    1.25
  -1  -2   7    7.51    1.06
   1  -2  -7    8.84    1.35
  -1  -2   7    7.25    1.08
   1   2  -7    6.63    1.33
   1   2  -7    6.13    0.90
  -1   2   7    5.77    0.90
   1   2  -7    5.12    1.66
  -1   2   7    8.58    1.45
   0  -2   7    5.52    1.15
   0  -2   7    5.88    1.12
   0  -2   7    3.37    1.55
   0  -2  -7    4.85    1.52
   0  -2  -7    3.22    1.01
   0  -2  -7    5.01    1.28
   0  -2  -7    5.01    0.81
   0   2  -7    3.35    1.50
   0   2   7    4.14    0.73
   0   2  -7    5.15    0.73
   0   2   7    4.36    1.16
   0   2   7    2.34    2.55
   0   2  -7    2.65    1.76
   0   2   7    1.20    1.32
   0   2   7    3.78    0.75
   0   2  -7    3.93    0.96
   0   2  -7    6.46    0.86
  -1  -2  -7    5.91    0.85
  -1  -2  -7    1.19    1.97
  -1  -2  -7    2.75    2.31
  -1  -2  -7    6.71    0.92
  -1  -2  -7    6.00    1.09
  -1  -2  -7    9.02    1.63
   1  -2   7    4.68    1.44
  -1  -2  -7    6.49    1.15
   1   2   7    3.23    1.14
  -1   2  -7    5.44    1.46
   1   2   7    4.56    1.65
  -1   2  -7    3.70    1.88
  -1   2  -7    5.60    1.53
  -1   2  -7    4.65    1.02
   1   2   7    5.03    0.82
  -2  -2  -7    6.14    0.99
   2  -2   7   13.15    2.22
  -2  -2  -7    8.93    1.24
  -2  -2  -7    7.46    1.31
  -2  -2  -7    5.19    1.91
   2  -2   7    8.41    1.56
   2  -2   7    7.73    1.43
  -2  -2  -7    8.04    2.02
   2  -2   7    8.37    2.48
  -2  -2  -7    5.93    2.31
  -2  -2  -7    8.14    1.07
   2   2   7    9.30    1.70
  -2   2  -7    8.22    1.69
  -2   2  -7    9.45    1.28
  -2   2  -7    7.27    1.27
  -2   2  -7    7.46    1.17
   2   2   7    7.47    1.44
  -2   2  -7    9.31    1.97
   2   2   7    8.89    1.42
  -2   2  -7    8.43    1.15
  -3  -2  -7   30.10    4.26
  -3  -2  -7   27.04    2.81
  -3  -2  -7   33.47    2.81
  -3  -2  -7   35.34    2.97
  -3  -2  -7   30.81    3.78
   3  -2   7   37.28    3.40
   3  -2   7   41.12    3.46
  -3  -2  -7   28.96    2.80
   3  -2   7   36.00    3.20
   3  -2   7   25.31    3.88
  -3   2  -7   25.56    2.89
  -3   2  -7   31.61    2.68
  -3   2  -7   30.55    2.68
  -3   2  -7   35.70    3.28
   3   2   7   29.42    4.06
   3   2   7   34.69    3.15
  -3   2  -7   20.74    4.60
   3   2   7   31.31    3.22
  -3   2  -7   28.24    2.73
  -3   2  -7   33.06    4.88
  -4  -2  -7    8.86    1.42
  -4  -2  -7    6.73    1.11
  -4  -2  -7    8.57    1.32
   4  -2   7    9.73    3.17
  -4   2  -7    9.39    3.19
  -4   2  -7   10.24    1.40
  -4   2  -7    9.41    1.38
  -4   2  -7    6.87    1.40
   5  -2   7    2.20    1.19
   5  -2   7    1.39    0.93
  -5  -2  -7    1.05    0.61
   5  -2   7    0.40    1.08
   5  -2   7    2.92    1.24
  -5  -2  -7    1.45    0.77
   5   2   7    0.49    0.70
   5   2   7    1.02    0.78
   5   2   7    2.05    1.07
  -5   2  -7    1.79    1.17
   5   2   7    1.58    1.11
  -5   2  -7    1.59    0.68
  -5   2  -7    0.98    0.85
   6  -2   7    4.61    0.95
   6  -2   7    4.74    1.11
  -6  -2  -7    6.13    0.85
   6  -2   7    4.46    0.98
  -6  -2  -7    6.40    0.98
   6   2   7    5.24    1.02
  -6   2  -7    6.53    0.97
  -6  -3   7    3.17    0.73
  -6  -3   7    1.88    1.01
   6  -3  -7    2.08    0.69
   6  -3  -7    3.28    1.12
   6  -3  -7    1.14    0.64
   6  -3  -7    0.42    0.93
  -6  -3   7   -0.85    1.05
  -6   3   7    2.52    0.69
   6   3  -7    1.95    0.68
   6   3  -7    2.95    0.78
   6   3  -7    2.14    0.90
   5  -3  -7    2.02    1.35
  -5  -3   7    1.06    0.73
   5  -3  -7    0.36    1.08
   5  -3  -7    0.30    0.74
   5  -3  -7    0.03    0.71
   5   3  -7    0.28    1.11
  -5   3   7    0.57    0.76
   5   3  -7   -0.90    0.86
   5   3  -7   -0.79    2.82
   5   3  -7    0.17    0.90
  -5   3   7    0.05    1.11
   5   3  -7    0.25    0.80
  -5   3   7    2.90    1.45
   5   3  -7    0.38    0.71
   4  -3  -7    8.74    1.28
   4  -3  -7    9.64    1.26
  -4  -3   7   13.59    1.96
  -4  -3   7    7.60    2.45
   4  -3  -7   11.49    1.85
   4  -3  -7    6.65    1.60
  -4  -3   7    9.28    1.35
   4   3  -7    6.91    1.25
   4   3  -7    9.44    1.46
   4   3  -7   13.65    2.18
  -4   3   7   10.12    1.47
  -4   3   7   13.39    1.73
  -4   3   7   11.12    1.39
   4   3  -7    8.49    1.30
  -3  -3   7   17.43    2.15
  -3  -3   7   15.70    1.76
  -3  -3   7   21.95    2.95
   3  -3  -7   16.55    2.90
   3  -3  -7   15.57    2.34
   3  -3  -7   18.33    1.89
   3  -3  -7   20.29    2.99
   3  -3  -7   12.55    2.18
   3  -3  -7   19.27    1.96
  -3  -3   7   21.04    1.90
   3  -3  -7   17.09    2.03
   3   3  -7   14.35    2.25
   3   3  -7   17.18    2.06
  -3   3   7   14.66    1.65
   3   3  -7   17.69    2.06
  -3   3   7   16.26    1.77
  -2  -3   7   11.55    1.88
   2  -3  -7   11.41    1.56
  -2  -3   7   15.60    2.26
  -2  -3   7   12.81    2.02
   2  -3  -7    9.79    1.86
   2  -3  -7   11.58    2.08
   2  -3  -7   15.59    1.90
   2  -3  -7   15.34    2.20
   2  -3  -7   16.70    1.94
  -2  -3   7   12.67    1.58
   2   3  -7   11.84    1.99
   2   3  -7   10.52    1.52
  -2   3   7   10.84    1.41
  -2   3   7   11.58    1.50
  -2   3   7   10.19    1.68
   1  -3  -7    6.42    1.68
  -1  -3   7    4.39    1.95
  -1  -3   7    4.25    0.80
   1  -3  -7    3.48    1.06
   1  -3  -7    6.64    2.20
  -1  -3   7    4.41    0.74
   1  -3  -7    4.39    1.18
  -1  -3   7    8.60    2.06
   1  -3  -7    4.27    1.49
  -1  -3   7    3.70    1.06
  -1   3   7    3.46    0.72
  -1   3   7    2.99    0.76
  -1   3   7    3.14    1.08
  -1   3   7    3.66    1.25
   1   3  -7    3.94    0.93
   0  -3   7   33.75    2.95
   0  -3  -7   28.11    3.05
   0  -3  -7   37.55    3.10
   0  -3   7   34.97    3.46
   0  -3  -7   30.39    2.70
   0  -3  -7   30.94    2.87
   0   3  -7   40.51    5.19
   0   3   7   33.16    3.00
   0   3  -7   33.89    3.60
   0   3   7   26.35    3.18
   0   3  -7   33.46    2.95
   0   3  -7   32.79    2.73
   0   3  -7   37.72    3.02
   0   3   7   33.85    3.26
  -1  -3  -7    4.97    1.05
  -1  -3  -7    4.01    1.48
   1  -3   7    3.61    1.14
  -1  -3  -7    0.62    2.47
  -1  -3  -7    4.66    0.96
  -1   3  -7    4.92    0.86
  -1   3  -7    4.82    0.84
  -1   3  -7    2.35    1.52
  -1   3  -7    1.40    4.04
   1   3   7    3.03    1.10
  -1   3  -7    3.63    0.92
   1   3   7    4.49    0.79
  -1   3  -7    4.14    0.97
  -2  -3  -7   13.73    1.61
  -2  -3  -7   12.44    1.70
   2  -3   7   11.50    1.88
  -2  -3  -7    7.98    2.52
  -2  -3  -7   13.34    1.59
   2  -3   7   12.87    2.01
  -2  -3  -7   13.64    1.49
  -2   3  -7   11.86    1.91
  -2   3  -7   13.05    1.67
   2   3   7   14.92    1.81
  -2   3  -7    3.12    4.87
  -2   3  -7   11.46    1.87
   2   3   7   10.09    1.76
  -2   3  -7    8.94    1.85
   2   3   7    7.54    1.82
  -3  -3  -7   11.93    2.71
  -3  -3  -7   20.05    1.89
   3  -3   7   13.62    2.33
   3  -3   7   16.10    2.33
   3  -3   7   16.92    2.58
   3  -3   7   22.22    2.51
  -3  -3  -7   17.15    1.78
  -3  -3  -7   19.38    1.89
  -3   3  -7   19.21    1.93
   3   3   7   18.44    2.68
  -3   3  -7   18.92    2.67
   3   3   7   14.87    2.35
  -3   3  -7   16.65    1.82
  -3   3  -7   15.51    2.66
   3   3   7   18.98    2.48
  -3   3  -7   17.25    1.91
  -4  -3  -7    4.17    0.89
   4  -3   7    2.04    1.52
   4  -3   7    2.86    1.30
   4  -3   7    5.28    1.41
  -4  -3  -7    0.28    2.33
  -4  -3  -7    6.50    0.95
  -4   3  -7    8.38    1.34
  -4   3  -7    9.51    1.35
  -4   3  -7    6.39    1.92
  -4   3  -7    3.65    3.17
  -4   3  -7    7.48    1.10
  -4   3  -7    8.22    1.29
   4   3   7    7.04    2.30
   5  -3   7    1.61    1.37
   5  -3   7    0.17    0.90
  -5  -3  -7   -0.20    0.69
  -5  -3  -7   -0.11    0.70
   5  -3   7    0.43    1.04
   5  -3   7    0.69    1.03
  -5  -3  -7    1.58    0.84
   5   3   7    0.78    0.74
  -5   3  -7    0.91    0.73
   5   3   7    1.03    0.96
  -5   3  -7    1.65    0.80
   5   3   7    0.42    1.10
   5   3   7    0.58    0.75
  -5   3  -7   -0.31    0.86
   6  -3   7    2.94    1.24
   6  -3   7    0.83    0.70
   6  -3   7    0.86    0.85
  -6  -3  -7    1.85    0.62
   6  -3   7    0.64    0.94
  -6  -3  -7    2.94    0.64
  -6   3  -7    0.98    0.64
   6   3   7    0.71    0.83
   6   3   7    0.56    0.42
  -6  -4   7    2.77    0.80
   6  -4  -7    2.54    1.13
   6  -4  -7    2.84    0.71
   6  -4  -7    2.14    0.56
   6   4  -7    2.50    0.85
   6   4  -7    1.86    0.67
   6   4  -7    3.21    0.93
   5  -4  -7   11.16    1.46
  -5  -4   7   14.13    1.57
   5  -4  -7   13.44    2.34
   5  -4  -7   10.73    1.46
   5  -4  -7   13.54    2.23
   5   4  -7   13.00    1.62
  -5   4   7   15.22    1.62
   5   4  -7   17.02    1.96
   5   4  -7   12.68    2.25
   5   4  -7   14.17    1.72
   5   4  -7    9.95    1.82
  -5   4   7   18.13    1.70
   4  -4  -7    5.52    1.85
  -4  -4   7    5.32    0.97
  -4  -4   7    0.37    2.84
   4  -4  -7    4.39    1.99
  -4  -4   7    6.85    1.06
   4   4  -7    4.99    1.22
   4   4  -7    5.55    1.13
  -4   4   7    5.17    1.01
  -4   4   7    5.35    0.94
   3  -4  -7   12.61    1.68
  -3  -4   7   13.54    1.98
  -3  -4   7   13.70    1.53
  -3  -4   7   12.22    2.63
   3  -4  -7   11.84    1.64
   3  -4  -7    9.48    1.79
   3  -4  -7   14.29    2.00
   3   4  -7   12.51    1.58
   3   4  -7   14.77    2.04
  -3   4   7   14.61    1.53
   3   4  -7   12.14    1.89
  -2  -4   7   23.38    2.56
   2  -4  -7   21.74    2.63
  -2  -4   7   21.01    2.27
   2  -4  -7   28.88    2.58
   2  -4  -7   32.88    3.77
  -2  -4   7   19.13    3.54
   2  -4  -7   27.04    2.46
  -2  -4   7   28.62    4.21
   2  -4  -7   31.70    2.53
  -2   4   7   20.04    2.18
  -2   4   7   28.63    2.73
   2   4  -7   28.03    2.35
  -2   4   7   22.68    2.16
  -1  -4   7   11.59    2.12
   1  -4  -7   11.38    1.76
   1  -4  -7   11.48    1.89
  -1  -4   7    9.52    1.28
   1  -4  -7    8.52    1.37
   1  -4  -7   10.45    1.43
  -1   4   7    9.76    1.45
   1   4  -7   11.10    1.55
   1   4  -7   11.64    1.53
  -1   4   7   11.18    1.70
  -1   4   7   11.74    1.60
  -1   4   7   11.17    1.31
   0  -4  -7   11.69    1.73
   0  -4  -7   11.95    1.73
   0  -4   7   17.07    2.88
   0  -4  -7   15.97    2.81
   0  -4   7   15.46    1.81
   0  -4  -7   13.01    2.03
   0   4   7   11.00    1.58
   0   4  -7   17.22    1.77
   0   4   7   14.07    2.02
   0   4  -7   10.49    2.33
   0   4  -7   12.39    1.67
   0   4  -7   12.84    1.54
   0   4   7   13.16    1.84
   0   4  -7   13.41    1.44
   1  -4   7    9.46    1.64
  -1  -4  -7    9.71    1.60
   1  -4   7    9.25    1.54
  -1  -4  -7   10.26    1.31
  -1  -4  -7    8.24    1.63
  -1   4  -7   11.03    1.87
   1   4   7   12.73    3.38
   1   4   7    9.27    1.31
  -1   4  -7   10.75    1.42
   1   4   7    9.69    1.77
  -1   4  -7    9.98    1.43
  -1   4  -7    9.91    1.28
  -1   4  -7   11.18    1.54
  -2  -4  -7   25.23    4.37
  -2  -4  -7   31.16    2.78
   2  -4   7   31.73    3.33
  -2  -4  -7   35.55    3.81
   2  -4   7   33.11    3.15
   2  -4   7   38.97    3.24
   2   4   7   32.62    2.61
  -2   4  -7   26.40    3.26
  -2   4  -7   28.84    2.78
   2   4   7   36.54    3.08
   2   4   7   35.37    3.49
  -2   4  -7   26.34    2.55
  -2   4  -7   29.28    2.68
  -2   4  -7   27.60    2.66
   3  -4   7    8.21    1.55
  -3  -4  -7    9.40    1.38
   3  -4   7    7.77    1.41
   3  -4   7    5.40    1.83
   3  -4   7    7.12    1.56
  -3   4  -7    8.56    1.93
  -3   4  -7   10.34    1.40
  -3   4  -7   13.40    1.65
   3   4   7   13.61    2.21
  -3   4  -7   11.67    1.61
  -4  -4  -7    0.32    0.83
  -4  -4  -7    3.84    1.20
   4  -4   7    1.99    1.52
   4  -4   7    2.00    1.71
  -4  -4  -7    2.51    0.78
   4   4   7    1.73    1.37
   4   4   7    0.92    1.29
  -4   4  -7    2.72    0.98
  -4   4  -7    2.60    0.77
   5  -4   7    6.20    1.29
   5  -4   7    5.54    1.15
   5  -4   7    4.82    1.19
   5  -4   7    6.89    1.82
   5   4   7    4.88    1.77
   5   4   7    5.14    0.92
   5   4   7    3.63    0.99
  -6  -4  -7    1.23    0.57
  -6  -4  -7    1.43    0.62
   6  -4   7    2.64    0.76
   6  -4   7    1.20    0.80
  -6  -4  -7    3.12    1.27
   6  -4   7    1.23    0.74
  -6   4  -7    2.82    0.66
  -6   4  -7    3.76    0.95
   5  -5  -7    1.17    1.20
   5  -5  -7    0.54    0.66
   5  -5  -7    1.56    0.73
  -5  -5   7   -1.42    0.85
  -5  -5   7    0.04    0.86
  -5  -5   7    1.53    1.14
   5  -5  -7    0.67    1.07
   5   5  -7    1.76    0.72
   5   5  -7    1.48    0.75
   5   5  -7    1.50    1.12
   5   5  -7    0.94    1.15
   4  -5  -7    2.05    0.86
   4  -5  -7    0.85    0.77
  -4  -5   7   -0.11    0.82
  -4  -5   7    1.84    1.77
   4  -5  -7    0.89    1.24
   4  -5  -7    0.77    1.15
   4   5  -7    3.93    1.65
   4   5  -7    2.83    1.55
   4   5  -7    1.18    0.84
   4   5  -7    1.01    0.85
  -4   5   7    0.48    0.70
   3  -5  -7    2.93    0.96
  -3  -5   7    7.15    1.96
  -3  -5   7   -0.44    3.06
   3  -5  -7    5.57    1.68
  -3  -5   7    5.08    0.93
   3  -5  -7    3.96    1.07
   3  -5  -7    4.16    1.39
   3  -5  -7    4.65    1.08
   3   5  -7    4.23    1.52
   3   5  -7    4.52    1.28
  -3   5   7    5.23    0.91
  -3   5   7    4.62    1.70
  -3   5   7    4.12    0.88
  -2  -5   7   31.43    2.78
   2  -5  -7   21.37    2.96
   2  -5  -7   29.35    2.65
  -2  -5   7   34.06    2.81
   2  -5  -7   23.26    2.64
   2  -5  -7   26.88    3.77
  -2  -5   7   26.91    2.64
   2  -5  -7   30.70    2.60
  -2  -5   7   27.48    3.27
  -2   5   7   30.04    2.58
   2   5  -7   25.02    2.52
  -2   5   7   35.92    3.10
  -2   5   7   28.89    2.62
   2   5  -7   33.10    3.20
  -1  -5   7   48.03    4.80
  -1  -5   7   59.66    4.45
   1  -5  -7   53.45    4.37
   1  -5  -7   57.62    4.28
   1  -5  -7   47.45    4.33
   1  -5  -7   49.56    4.65
  -1   5   7   63.39    4.95
   1   5  -7   57.55    4.56
   1   5  -7   61.58    4.98
  -1   5   7   52.35    4.65
  -1   5   7   54.98    4.48
   1   5  -7   51.43    4.57
  -1   5   7   56.31    4.44
   0  -5   7   38.38    3.72
   0  -5  -7   42.42    3.89
   0  -5  -7   36.06    3.44
   0  -5  -7   34.30    3.29
   0   5   7   35.28    3.13
   0   5  -7   38.45    3.08
   0   5  -7   35.93    2.92
   0   5   7   39.26    3.76
   0   5  -7   32.07    3.45
   0   5   7   30.43    3.15
   0   5  -7   35.99    4.31
   1  -5   7   48.39    4.52
  -1  -5  -7   46.35    4.01
   1  -5   7   47.46    4.46
  -1  -5  -7   58.58    4.50
  -1  -5  -7   58.28    4.36
  -1   5  -7   52.88    3.98
  -1   5  -7   41.48    6.03
  -1   5  -7   54.01    3.94
   1   5   7   45.43    4.08
  -1   5  -7   50.03    3.90
  -1   5  -7   50.17    4.07
   1   5   7   46.31    3.95
   2  -5   7   20.70    2.53
   2  -5   7   16.99    3.15
   2  -5   7   17.80    2.70
  -2  -5  -7   19.15    2.44
   2  -5   7   18.89    2.31
   2  -5   7   23.51    3.90
  -2   5  -7   23.72    2.45
   2   5   7   17.10    3.17
  -2   5  -7   25.50    2.27
   2   5   7   19.41    3.20
  -2   5  -7   26.85    2.19
  -2   5  -7   24.83    2.23
  -2   5  -7   22.52    3.05
   3  -5   7    3.26    1.47
   3  -5   7    2.84    1.15
  -3  -5  -7    1.50    1.98
  -3  -5  -7    3.96    0.89
   3  -5   7    1.46    1.33
  -3  -5  -7    2.55    2.37
  -3  -5  -7    3.38    0.81
   3   5   7    2.41    1.93
   3   5   7    1.68    1.23
  -3   5  -7    3.50    1.01
  -3   5  -7    3.66    0.82
  -3   5  -7    3.65    1.04
  -3   5  -7    2.76    2.90
  -3   5  -7    1.90    3.03
  -3   5  -7    3.76    0.88
   4  -5   7    2.20    1.13
  -4  -5  -7    2.05    1.36
   4  -5   7    0.06    1.06
  -4  -5  -7    0.90    0.66
   4  -5   7    2.01    0.81
   4  -5   7    0.89    1.21
   4   5   7    1.27    0.95
  -4   5  -7    1.21    0.89
   4   5   7    1.23    1.44
  -4   5  -7    1.12    0.70
  -5  -5  -7    1.78    0.56
   5  -5   7    1.33    1.38
   5  -5   7    1.68    0.96
  -5  -5  -7    2.61    1.15
  -5   5  -7    1.64    0.68
  -5   5  -7    2.16    0.74
  -5   5  -7    1.66    0.87
   5   5   7    1.25    0.71
   5   5   7    0.60    1.28
   5  -6  -7    7.42    1.95
   5  -6  -7    7.70    1.15
   5  -6  -7    5.92    0.87
   5  -6  -7    7.05    1.24
   5   6  -7    5.88    1.01
   5   6  -7    8.43    1.56
  -5   6   7    8.76    1.07
  -5   6   7    6.01    2.05
   5   6  -7    8.41    1.24
   4  -6  -7    4.44    1.29
   4  -6  -7    4.46    0.95
   4  -6  -7    5.64    0.92
   4  -6  -7    5.55    1.42
   4   6  -7    5.40    1.15
   4   6  -7    5.54    1.16
  -4   6   7    7.00    1.01
  -4   6   7    9.14    1.45
  -3  -6   7    0.96    1.15
  -3  -6   7    0.25    0.84
  -3  -6   7    2.07    1.10
   3  -6  -7    1.83    0.93
   3  -6  -7    1.18    1.07
   3  -6  -7    1.31    1.31
  -3  -6   7    1.36    4.63
  -3   6   7    2.00    0.84
   3   6  -7    1.79    1.26
  -3   6   7    1.24    0.72
   2  -6  -7   15.41    1.89
   2  -6  -7   14.10    2.28
   2  -6  -7   16.15    1.91
   2  -6  -7   18.32    2.42
   2  -6  -7   14.61    1.99
  -2  -6   7   16.85    2.08
  -2  -6   7   18.05    2.48
   2   6  -7   14.78    1.79
   2   6  -7   19.76    2.87
  -2   6   7   14.54    2.29
   2   6  -7   17.03    1.68
  -2   6   7   14.78    1.67
  -1  -6   7   22.13    2.92
  -1  -6   7   17.99    2.39
   1  -6  -7   19.40    2.27
   1  -6  -7   26.03    2.40
   1  -6  -7   26.94    2.85
   1   6  -7   19.04    2.60
  -1   6   7   20.79    2.23
   1   6  -7   21.80    2.71
   1   6  -7   25.34    2.29
  -1   6   7   22.38    3.01
   0  -6  -7   29.18    2.98
   0  -6   7   30.66    3.21
   0  -6  -7   34.35    4.03
   0  -6  -7   30.02    2.79
   0   6   7   30.27    2.91
   0   6   7   30.85    2.68
   0   6  -7   30.54    2.76
   0   6   7   34.27    3.65
   0   6  -7   32.07    5.17
   0   6  -7   25.61    3.08
   0   6  -7   28.31    2.58
   0   6   7   30.44    2.68
   1  -6   7   28.35    3.83
   1  -6   7   29.59    2.96
  -1  -6  -7   22.84    2.86
  -1   6  -7   22.99    2.36
   1   6   7   30.04    3.20
   1   6   7   26.98    2.43
  -1   6  -7   22.45    2.54
  -1   6  -7   27.20    2.43
  -1   6  -7   27.74    2.46
   1   6   7   37.75    4.73
  -1   6  -7   31.37    3.74
   2  -6   7   12.39    2.05
  -2  -6  -7   17.90    2.50
  -2  -6  -7   13.09    1.45
   2  -6   7   10.01    2.18
   2  -6   7   13.88    2.36
   2  -6   7   14.72    2.12
   2   6   7   11.72    1.55
  -2   6  -7   13.61    1.72
  -2   6  -7   13.63    1.51
  -2   6  -7   13.67    1.63
  -2   6  -7   12.37    2.33
   2   6   7   12.50    1.80
   3  -6   7    1.96    1.31
   3  -6   7    1.40    1.88
  -3  -6  -7    4.67    1.36
  -3  -6  -7    1.26    1.68
  -3  -6  -7    1.52    0.96
   3  -6   7   -3.77    2.85
   3  -6   7    3.40    1.48
  -3   6  -7    3.25    0.83
  -3   6  -7    3.42    0.79
  -3   6  -7    2.24    0.99
  -3   6  -7    0.07    3.50
   4  -6   7    1.53    1.13
   4  -6   7    0.82    1.13
  -4  -6  -7    3.16    0.65
  -4  -6  -7    2.34    1.14
   4  -6   7    1.02    1.14
  -4   6  -7    5.33    0.91
  -4   6  -7    4.05    0.95
   5  -6   7    3.99    0.95
   5  -6   7    4.02    1.01
   5  -6   7    3.48    1.05
  -5   6  -7    6.81    0.90
   5   6   7    3.88    0.90
  -5   6  -7    5.66    0.95
   5  -7  -7    0.23    0.75
   5  -7  -7    0.76    0.59
   5  -7  -7    0.34    1.13
  -5  -7   7    0.68    0.83
   5   7  -7    1.60    1.11
   5   7  -7    1.36    0.67
   5   7  -7    1.15    0.97
  -5   7   7    1.71    0.60
   4  -7  -7    1.55    1.03
   4  -7  -7    1.38    0.78
   4  -7  -7    0.74    1.30
  -4  -7   7    3.83    1.36
  -4  -7   7    3.19    1.08
  -4   7   7    1.02    0.82
   4   7  -7    1.89    0.93
   3  -7  -7    4.31    0.96
  -3  -7   7    5.93    1.35
  -3  -7   7   -1.24    2.67
   3  -7  -7    3.62    1.35
   3  -7  -7    4.07    1.51
  -3   7   7    3.64    0.89
  -3   7   7    4.84    1.19
   3   7  -7    4.98    1.42
   2  -7  -7    7.03    1.26
  -2  -7   7   11.76    2.26
   2  -7  -7    9.08    1.68
   2  -7  -7   11.81    1.55
  -2   7   7    8.06    1.33
   2   7  -7    9.99    1.35
  -2   7   7    4.60    2.10
   2   7  -7   11.09    1.80
  -2   7   7    9.56    1.49
   2   7  -7    8.18    1.66
  -1  -7   7   33.16    4.09
   1  -7  -7   28.58    3.74
   1  -7  -7   30.26    2.88
   1  -7  -7   36.50    2.96
  -1  -7   7   31.17    3.06
  -1   7   7   31.67    4.61
   1   7  -7   29.30    3.28
  -1   7   7   36.01    2.99
   1   7  -7   37.85    3.04
  -1   7   7   31.55    2.83
   0  -7   7   13.06    2.18
   0  -7  -7    8.40    2.44
   0  -7   7    9.43    1.68
   0  -7  -7   11.98    1.94
   0   7  -7    8.78    2.20
   0   7  -7   10.05    1.40
   0   7  -7   10.28    1.36
   0   7   7    8.18    1.20
   0   7   7    4.47    2.66
   0   7  -7   10.53    1.36
   1  -7   7   35.55    3.48
   1  -7   7   39.18    3.84
  -1  -7  -7   36.33    3.49
  -1   7  -7   36.82    6.26
  -1   7  -7   39.58    3.12
  -1   7  -7   35.55    3.02
  -1   7  -7   35.54    3.05
   1   7   7   35.49    5.90
   1   7   7   40.82    3.09
  -1   7  -7   30.31    3.16
   2  -7   7    8.98    1.39
   2  -7   7   13.72    4.41
   2  -7   7    8.28    1.53
  -2   7  -7    9.92    1.41
  -2   7  -7    9.41    1.33
  -2   7  -7    6.79    1.27
  -2   7  -7   11.29    1.62
   2   7   7    8.81    1.42
   3  -7   7    1.41    1.23
   3  -7   7    4.30    1.27
  -3  -7  -7    5.73    1.78
   3  -7   7    3.43    1.06
  -3  -7  -7    4.87    1.26
  -3   7  -7    5.34    1.29
  -3   7  -7    3.40    0.84
   3   7   7    2.45    1.44
  -3   7  -7    4.34    0.85
  -4  -7  -7    2.31    1.05
   4  -7   7    0.76    0.97
   4  -7   7    0.74    1.19
  -4   7  -7    1.33    0.71
   4   7   7    1.22    0.99
  -4   7  -7    3.47    0.89
  -4   7  -7    2.56    0.70
   5  -7   7    0.39    0.85
   5  -7   7    0.03    0.62
  -5   7  -7    1.06    0.58
   5   7   7    1.25    0.70
  -5   7  -7    0.10    0.78
   4  -8  -7    1.78    0.68
   4  -8  -7    3.87    1.40
   4  -8  -7    0.80    0.81
  -4  -8   7    3.31    1.09
  -4   8   7    1.11    1.17
   3  -8  -7    2.52    0.84
   3  -8  -7    4.08    1.54
  -3  -8   7    0.27    2.26
  -3  -8   7    5.07    1.22
   3  -8  -7    1.15    1.06
  -3   8   7    4.52    0.88
   3   8  -7    4.89    1.66
   2  -8  -7    0.95    1.81
   2  -8  -7    2.59    1.78
   2  -8  -7    2.36    0.94
  -2  -8   7    2.60    1.59
  -2  -8   7    1.19    1.26
   2  -8  -7    4.99    1.02
   2  -8  -7    3.64    1.23
   2   8  -7    4.94    1.53
   2   8  -7    3.53    0.72
   2   8  -7    3.52    1.15
  -2   8   7    3.37    0.97
  -1  -8   7    2.64    1.29
   1  -8  -7    1.73    0.82
   1  -8  -7   -0.70    2.01
   1  -8  -7    1.20    1.59
  -1  -8   7    3.54    2.62
  -1   8   7    3.33    0.86
   1   8  -7    4.49    1.20
  -1   8   7    3.55    1.12
   1   8  -7    5.55    1.27
   0  -8   7    3.56    2.17
   0  -8  -7    1.84    2.15
   0  -8  -7    2.02    1.15
   0  -8   7    4.36    1.84
   0   8  -7    3.59    1.21
   0   8  -7    3.13    0.94
   0   8   7    3.56    0.98
   0   8  -7   -0.13    2.31
   0   8  -7    3.70    1.08
   0   8  -7    5.83    0.92
   1  -8   7   -0.85    1.53
  -1  -8  -7    3.21    1.35
   1   8   7    1.48    1.19
   1   8   7    8.62    5.48
  -1   8  -7    1.05    1.37
   1   8   7    4.84    1.35
  -1   8  -7    3.04    1.03
   2  -8   7    3.96    1.17
   2  -8   7    5.42    1.59
  -2  -8  -7    3.04    1.27
   2  -8   7    3.63    1.01
  -2   8  -7    3.47    0.83
   2   8   7    3.43    1.14
   2   8   7    8.00    2.37
  -2   8  -7    4.58    0.82
   2   8   7    3.04    0.76
  -3  -8  -7   -0.06    2.76
   3  -8   7    1.80    1.02
  -3  -8  -7    0.19    2.39
   3  -8   7    1.26    1.13
   3  -8   7    0.54    1.53
  -3   8  -7    2.05    0.89
  -3   8  -7    1.25    0.75
   3   8   7    1.52    1.54
  -3   8  -7    2.97    0.73
  -3   8  -7    3.11    0.78
   4  -8   7    2.15    0.85
   4  -8   7    1.01    0.91
  -4  -8  -7    2.27    1.13
  -4  -8  -7    0.67    2.39
  -4   8  -7    2.01    0.72
  -4   8  -7    2.54    0.79
  -4   8  -7    2.42    1.10
   4   8   7    3.57    1.03
  -4   8  -7    3.97    0.90
   4  -9  -7    1.85    0.57
   4  -9  -7    1.53    0.73
  -4   9   7    5.40    0.79
   4   9  -7    4.74    1.56
   3  -9  -7    2.18    0.85
   3  -9  -7    1.30    1.05
   3  -9  -7    2.88    1.64
  -3  -9   7    3.58    1.99
  -3   9   7    3.39    0.75
  -3   9   7    2.17    0.79
  -2  -9   7    6.85    2.82
   2  -9  -7    3.66    2.24
   2  -9  -7    3.03    0.86
   2  -9  -7    3.64    1.09
   2  -9  -7    5.32    1.41
  -2   9   7    3.78    0.86
   1  -9  -7    3.83    1.53
  -1  -9   7    4.53    1.39
   1   9  -7    3.59    0.80
  -1   9   7    2.94    0.88
   1   9  -7    3.47    1.05
   0  -9  -7   14.02    1.80
   0  -9   7   14.69    2.15
   0   9  -7   14.35    1.62
   0   9  -7   15.05    1.89
   0   9  -7   19.03    1.76
   0   9   7   14.44    1.67
  -1  -9  -7    1.53    0.95
   1  -9   7    2.01    1.77
   1   9   7    2.99    0.76
  -1   9  -7    2.78    0.76
  -1   9  -7    3.03    0.96
   1   9   7    4.80    0.85
  -1   9  -7    3.65    0.86
   1   9   7    4.03    1.14
  -1   9  -7    3.63    0.82
   2  -9   7    8.59    1.16
   2  -9   7    6.25    1.24
   2   9   7    9.30    2.52
  -2   9  -7    7.77    1.06
   2   9   7    5.25    1.09
  -2   9  -7    6.23    1.14
  -2   9  -7    7.51    0.99
  -2   9  -7    6.48    0.93
   2   9   7   10.53    1.50
  -3  -9  -7    0.81    1.39
   3  -9   7    1.62    1.25
   3  -9   7    1.83    0.97
  -3   9  -7    2.23    0.73
   3   9   7    5.21    1.54
  -3   9  -7    4.01    0.76
  -3   9  -7    1.55    1.35
  -3   9  -7    2.87    0.85
   4  -9   7    0.98    0.61
   4  -9   7    0.20    1.05
  -4  -9  -7   -3.60    2.11
  -4   9  -7    1.42    0.72
   4   9   7    2.39    1.05
  -4   9  -7    1.40    1.36
  -3 -10   7   -0.22    1.69
   3 -10  -7    0.78    1.39
   3 -10  -7    0.37    0.76
  -3  10   7   -0.20    0.61
   2 -10  -7    0.83    1.29
   2 -10  -7    1.26    1.01
  -2 -10   7    2.52    1.41
  -2  10   7   -0.13    0.69
   1 -10  -7    6.08    2.12
  -1 -10   7    1.68    1.61
   1 -10  -7    1.94    1.08
   1 -10  -7    0.82    2.07
  -1  10   7    1.01    0.99
   1  10  -7    3.18    1.38
   1  10  -7    2.57    0.93
   0 -10   7   -1.59    1.67
   0 -10   7    0.74    1.02
   0 -10  -7    0.79    0.78
   0  10  -7    1.10    0.66
   0  10  -7    1.76    0.94
   0  10   7    0.80    0.87
   0  10   7    0.85    0.66
  -1 -10  -7    2.93    1.21
   1 -10   7    3.10    1.00
   1 -10   7    2.05    1.36
   1  10   7    3.98    0.93
  -1  10  -7    3.33    0.77
  -1  10  -7    2.28    0.64
  -1  10  -7    1.78    0.85
  -2 -10  -7    0.16    1.07
   2 -10   7    1.25    0.89
   2 -10   7    0.62    0.67
   2 -10   7   -1.77    1.08
  -2  10  -7    1.21    0.79
   2  10   7   -0.99    0.91
   2  10   7    2.05    0.65
  -2  10  -7    0.56    0.60
   2  10   7    3.97    2.77
   3 -10   7    0.08    1.36
  -3 -10  -7    1.30    1.35
   3 -10   7    1.38    0.73
   3  10   7   -0.30    1.58
  -3  10  -7    1.19    0.60
  -3  10  -7    0.65    0.73
  -3  10  -7    1.13    0.64
  -2 -11   7    3.61    1.91
  -2  11   7    4.58    0.90
  -2  11   7    4.48    0.86
  -2  11   7    4.31    0.68
   1 -11  -7    0.68    1.33
  -1 -11   7    4.39    1.09
  -1  11   7    3.15    0.64
  -1  11   7    1.88    0.81
   0 -11   7   -0.64    0.85
   0 -11  -7   -0.21    0.73
   0  11  -7   -0.58    0.89
   0  11  -7    0.15    0.61
   0  11   7    0.82    0.55
   0  11   7    1.72    0.68
   1 -11   7    5.56    0.93
  -1 -11  -7    3.42    0.95
   1 -11   7    5.50    1.40
   1 -11   7    4.11    0.88
  -1  11  -7    3.95    0.67
   1  11   7    4.12    0.66
  -1  11  -7    4.57    0.89
  -2 -11  -7    4.05    0.99
   2 -11   7    4.43    0.81
   2 -11   7    3.91    1.20
  -2  11  -7    3.92    0.85
  -2  11  -7    4.40    0.67
   5   0  -8    6.48    1.50
  -5   0   8    7.46    1.05
   5   0  -8    6.75    1.16
   5   0  -8    6.28    1.03
  -5   0   8    8.17    1.25
  -4   0   8    5.38    1.07
   4   0  -8    5.36    1.12
   4   0  -8    4.26    1.35
  -4   0   8    6.41    1.03
   4   0  -8    4.65    1.16
  -4   0   8    5.55    2.08
   4   0  -8    4.00    1.02
   3   0  -8    8.72    1.67
   3   0  -8    5.84    1.39
  -3   0   8    8.39    1.39
  -3   0   8    8.16    1.49
   3   0  -8   12.70    1.95
  -3   0   8    9.88    1.30
  -3   0   8    0.92    4.58
   2   0  -8   11.02    1.84
   2   0  -8   16.73    1.82
  -2   0   8    7.89    2.11
  -2   0   8   14.38    1.61
  -2   0   8   12.00    1.43
   2   0  -8   11.58    1.83
  -2   0   8   10.34    1.82
   2   0  -8   15.63    2.07
   1   0  -8   30.67    3.08
   1   0  -8   31.96    3.21
  -1   0   8   36.43    2.91
  -1   0   8   37.00    3.02
  -1   0   8   40.28    3.28
   0   0   8    2.50    2.20
   0   0   8    2.11    0.73
   0   0  -8    4.29    2.57
   0   0   8   -0.13    1.11
   0   0  -8    0.01    0.86
  -1   0  -8   33.23    2.48
   1   0   8   21.88    3.31
  -1   0  -8   37.23    3.52
   1   0   8   22.84    2.78
  -1   0  -8   29.05    2.69
  -2   0  -8    9.03    1.47
  -2   0  -8   11.53    1.44
  -2   0  -8   11.17    1.63
  -2   0  -8    7.41    2.96
  -2   0  -8   13.47    1.47
  -3   0  -8   14.67    1.93
   3   0   8   17.10    2.20
   3   0   8   16.72    2.43
  -3   0  -8   19.01    3.81
  -3   0  -8   14.98    1.78
  -3   0  -8   11.42    1.76
  -3   0  -8   13.58    1.84
  -4   0  -8    6.16    1.48
  -4   0  -8    3.77    0.82
   4   0   8    0.87    1.75
   4   0   8    1.97    0.95
  -4   0  -8    4.39    1.32
  -4   0  -8    2.99    0.77
  -5   0  -8    9.16    1.39
   5   0   8    8.42    1.46
  -5   0  -8    8.31    1.13
   5  -1  -8    3.90    1.16
  -5  -1   8    6.21    0.92
   5  -1  -8    3.85    0.90
   5  -1  -8    7.07    1.59
  -5  -1   8    4.86    0.93
   5   1  -8    5.15    0.99
   5   1  -8    7.18    1.55
  -5   1   8    5.87    0.96
  -5   1   8    4.82    0.90
  -5   1   8    5.13    1.48
   5   1  -8    4.29    1.02
   4  -1  -8    8.86    1.31
   4  -1  -8    5.61    1.44
   4  -1  -8    6.28    1.12
  -4  -1   8    5.62    1.08
   4  -1  -8    5.83    1.09
   4  -1  -8    4.83    1.41
   4   1  -8    5.17    1.19
   4   1  -8    7.00    1.20
   4   1  -8    6.08    1.50
  -4   1   8    6.48    1.04
   4   1  -8    4.95    1.34
   4   1  -8    7.47    1.05
  -3  -1   8   33.35    3.24
   3  -1  -8   31.92    3.18
  -3  -1   8   36.45    4.73
  -3  -1   8   31.28    2.93
   3  -1  -8   35.82    3.40
  -3  -1   8   38.48    3.05
   3  -1  -8   39.93    3.55
   3  -1  -8   36.22    3.11
   3  -1  -8   34.23    3.28
   3   1  -8   33.60    2.98
  -3   1   8   28.34    2.78
  -3   1   8   32.92    4.30
  -3   1   8   32.86    3.13
  -3   1   8   37.51    2.93
   3   1  -8   33.75    3.19
   3   1  -8   34.79    3.09
   3   1  -8   31.56    3.08
   3   1  -8   35.16    3.34
  -2  -1   8    9.14    1.68
   2  -1  -8   14.55    1.81
   2  -1  -8    8.94    1.54
  -2  -1   8   11.68    1.49
   2  -1  -8   11.41    1.94
   2  -1  -8   12.67    1.66
  -2  -1   8   12.60    2.38
  -2   1   8    9.56    1.39
  -2   1   8    9.72    1.46
   2   1  -8   12.33    1.65
  -1  -1   8    5.26    0.86
   1  -1  -8    4.28    1.22
  -1  -1   8    6.14    0.95
  -1  -1   8    5.34    1.27
   1  -1  -8    8.74    2.58
   1  -1  -8    4.06    1.12
  -1   1   8    4.17    1.01
   1   1  -8    4.37    1.08
   1   1  -8    4.85    0.87
  -1   1   8    7.54    1.35
   1   1  -8    6.72    1.28
   0  -1  -8    8.40    1.30
   0  -1  -8    7.20    1.32
   0  -1   8    9.70    1.60
   0  -1   8   10.39    1.18
   0  -1  -8    8.61    1.59
   0   1   8    2.98    2.78
   0   1   8    6.29    1.25
   0   1  -8    7.11    2.01
   0   1  -8    6.73    1.18
   0   1   8    5.33    0.98
  -1  -1  -8    6.46    0.99
   1  -1   8    5.01    1.29
  -1  -1  -8    4.80    1.18
   1  -1   8    5.06    1.72
  -1  -1  -8    6.40    1.64
  -1   1  -8   11.45    3.39
   1   1   8    6.52    1.81
  -1   1  -8    5.86    0.96
   1   1   8    5.29    1.44
  -1   1  -8    6.14    0.96
  -1   1  -8    8.03    1.24
  -1   1  -8    4.60    1.12
  -2  -1  -8   12.70    1.84
  -2  -1  -8   15.32    1.85
   2  -1   8   16.10    2.17
  -2  -1  -8   14.75    1.71
  -2  -1  -8   14.98    1.66
   2  -1   8   17.35    2.51
  -2   1  -8   12.53    1.77
   2   1   8   16.39    2.03
  -2   1  -8   14.36    1.69
  -2   1  -8   13.40    1.63
  -2   1  -8   17.21    3.04
  -2   1  -8   17.40    1.79
   3  -1   8   33.37    3.36
   3  -1   8   35.11    3.91
  -3  -1  -8   36.19    3.00
  -3  -1  -8   40.80    3.19
   3  -1   8   34.12    3.83
  -3  -1  -8   24.54    4.41
  -3  -1  -8   35.28    3.02
  -3   1  -8   31.28    3.09
   3   1   8   33.13    3.35
  -3   1  -8   34.78    2.98
  -3   1  -8   40.60    4.95
  -3   1  -8   37.81    3.03
   3   1   8   33.36    4.10
   4  -1   8    8.18    1.80
   4  -1   8    6.45    1.15
  -4  -1  -8    5.51    0.94
  -4  -1  -8    6.75    1.05
  -4   1  -8    8.66    1.24
  -4   1  -8    5.58    0.91
   4   1   8    4.80    1.97
   4   1   8    3.17    1.14
   4   1   8    6.03    1.11
   5  -1   8    5.56    1.67
   5  -1   8    3.90    1.28
  -5  -1  -8    3.86    1.01
   5   1   8    4.07    1.16
  -5   1  -8    6.24    0.95
  -5   1  -8    4.98    0.87
   5   1   8    7.31    1.52
   5  -2  -8    6.24    1.49
   5  -2  -8    4.45    0.94
  -5  -2   8    7.24    1.24
  -5  -2   8    8.73    1.25
   5  -2  -8    5.78    1.14
   5   2  -8    4.40    1.27
  -5   2   8    4.83    1.45
   5   2  -8    6.68    1.19
  -5   2   8    5.44    0.88
   5   2  -8    4.16    1.06
  -4  -2   8    2.85    1.30
   4  -2  -8    0.58    1.19
   4  -2  -8    1.75    0.75
   4  -2  -8    0.71    0.86
  -4  -2   8    0.58    0.89
   4  -2  -8   -0.25    0.93
   4  -2  -8   -0.05    1.19
  -4  -2   8    2.03    0.76
   4   2  -8   -1.52    1.23
   4   2  -8    0.64    1.17
  -4   2   8    1.59    0.93
   4   2  -8    0.07    0.95
   4   2  -8    0.46    0.76
  -4   2   8    0.89    1.23
   4   2  -8   -0.18    1.38
  -3  -2   8    6.58    1.12
  -3  -2   8    7.38    1.08
  -3  -2   8    5.98    1.25
  -3  -2   8    9.69    2.83
   3  -2  -8    5.68    1.38
   3  -2  -8   10.23    2.35
   3  -2  -8    5.92    1.33
   3  -2  -8    7.24    1.22
   3  -2  -8    3.75    1.28
   3   2  -8    5.64    1.22
   3   2  -8    8.86    3.07
   3   2  -8    4.63    1.52
  -3   2   8    5.99    0.95
  -3   2   8    7.08    1.14
  -3   2   8    6.32    1.36
   3   2  -8    5.56    1.32
   3   2  -8    6.81    2.04
  -2  -2   8    3.03    0.97
   2  -2  -8    0.89    1.12
   2  -2  -8    1.76    1.05
  -2  -2   8    1.32    0.96
   2  -2  -8    3.12    2.03
  -2  -2   8    1.93    0.70
   2  -2  -8    1.77    0.96
   2  -2  -8    1.95    1.12
   2  -2  -8    2.64    1.55
  -2  -2   8    4.46    2.54
   2   2  -8    4.37    2.39
   2   2  -8    2.82    1.20
  -2   2   8    3.39    1.06
   2   2  -8    1.75    1.01
   1  -2  -8    3.75    1.09
  -1  -2   8    1.45    1.36
  -1  -2   8    0.91    0.85
  -1  -2   8   -0.45    2.18
  -1  -2   8    2.28    0.75
  -1   2   8    5.10    1.85
  -1   2   8    3.89    0.94
   1   2  -8    5.76    0.82
  -1   2   8    2.29    1.03
  -1   2   8    3.53    1.30
   1   2  -8    3.97    1.25
   0  -2  -8    3.51    0.77
   0  -2   8    4.31    1.65
   0  -2  -8    3.62    1.06
   0  -2   8    3.99    1.17
   0  -2  -8    3.89    1.26
   0   2  -8    4.39    1.38
   0   2   8    3.09    0.80
   0   2  -8    2.19    1.30
   0   2  -8    2.06    0.98
   0   2   8    6.39    2.70
   0   2   8    4.29    1.13
  -1  -2  -8    4.41    1.51
   1  -2   8    7.13    1.60
  -1  -2  -8    2.67    1.30
   1  -2   8    3.82    1.61
  -1  -2  -8    4.38    0.82
  -1   2  -8    6.05    0.96
   1   2   8    6.14    1.60
  -1   2  -8    3.67    1.09
  -1   2  -8    4.03    2.05
  -1   2  -8    5.76    1.02
   1   2   8    7.99    1.83
  -2  -2  -8    0.59    0.97
  -2  -2  -8    0.71    0.69
  -2  -2  -8    4.65    2.01
  -2  -2  -8   -0.93    1.79
   2  -2   8    3.89    1.81
   2  -2   8    2.77    1.36
   2  -2   8    1.67    1.24
  -2  -2  -8    4.03    0.86
   2   2   8    1.31    1.09
  -2   2  -8    0.90    0.90
  -2   2  -8    0.58    1.30
  -2   2  -8    1.55    0.79
   2   2   8    0.09    0.79
  -2   2  -8    0.20    1.61
   2   2   8    1.92    1.43
  -2   2  -8    2.32    2.34
  -3  -2  -8    4.15    0.92
   3  -2   8    3.53    1.75
  -3  -2  -8    3.01    1.02
   3  -2   8    3.18    1.65
  -3  -2  -8    2.49    1.11
   3   2   8    2.00    1.45
  -3   2  -8    2.24    2.51
  -3   2  -8    4.11    0.99
  -3   2  -8    6.57    1.27
  -3   2  -8    5.04    1.09
  -3   2  -8    5.71    0.93
   3   2   8    2.93    1.49
  -4  -2  -8    1.26    0.68
   4  -2   8    0.79    0.94
   4  -2   8    0.37    0.73
   4  -2   8    2.56    1.32
   4  -2   8   -1.77    1.39
  -4  -2  -8    1.25    1.27
  -4   2  -8    0.75    0.91
   4   2   8    0.60    0.89
  -4   2  -8    0.03    1.08
   4   2   8    0.93    0.91
  -4   2  -8    0.82    0.69
   5  -2   8    2.77    1.10
  -5  -2  -8    4.16    1.53
  -5  -2  -8    4.17    0.72
   5  -2   8    1.39    1.20
   5  -2   8    2.76    1.20
  -5   2  -8    4.72    0.82
  -5   2  -8    7.08    1.63
   5   2   8    2.55    1.03
  -5   2  -8    5.01    0.83
   5  -3  -8    3.92    1.47
  -5  -3   8    3.28    0.98
   5  -3  -8    2.46    0.77
   5  -3  -8    2.99    0.82
   5  -3  -8    3.91    1.23
  -5  -3   8    3.98    0.83
  -5   3   8    0.95    0.67
   5   3  -8    1.28    1.49
   5   3  -8    2.93    1.00
   5   3  -8    1.61    1.38
   5   3  -8    1.97    0.61
   5   3  -8    3.08    1.18
  -4  -3   8   14.93    1.61
   4  -3  -8   10.28    1.83
   4  -3  -8   14.33    1.72
   4  -3  -8   11.74    1.66
   4  -3  -8   11.96    1.90
  -4  -3   8   15.25    1.86
   4   3  -8   12.98    2.15
  -4   3   8   15.88    1.73
  -4   3   8   10.69    1.85
   4   3  -8   14.15    2.05
  -4   3   8   13.04    1.56
   4   3  -8   15.55    1.66
   4   3  -8    9.47    1.99
   4   3  -8   13.73    2.09
  -3  -3   8    5.02    1.17
  -3  -3   8    7.02    1.33
   3  -3  -8    4.29    0.96
   3  -3  -8    3.09    1.34
  -3  -3   8    5.18    1.01
   3  -3  -8    3.31    1.54
   3  -3  -8    5.35    1.23
   3   3  -8    3.51    1.13
  -3   3   8    5.01    0.97
  -3   3   8    5.74    1.28
  -3   3   8    3.81    0.83
   3   3  -8    3.62    1.07
  -3   3   8    5.57    2.44
   2  -3  -8    8.23    1.44
  -2  -3   8    7.24    1.47
  -2  -3   8   10.17    1.34
  -2  -3   8    3.04    4.32
   2  -3  -8    9.71    1.53
   2  -3  -8    6.51    2.20
   2  -3  -8   12.28    1.63
   2   3  -8    8.51    1.33
   2   3  -8    9.07    1.30
  -2   3   8    8.78    1.47
   2   3  -8    7.67    1.63
  -2   3   8    8.20    1.21
  -2   3   8    7.13    1.92
  -1  -3   8    0.13    4.27
   1  -3  -8    7.70    1.30
   1  -3  -8    6.08    1.24
  -1  -3   8    4.59    1.30
  -1  -3   8    5.12    2.00
  -1  -3   8    8.44    1.74
  -1   3   8   11.25    1.50
  -1   3   8    8.80    1.27
  -1   3   8    5.86    1.44
   1   3  -8    7.79    1.47
   1   3  -8   10.44    1.30
   1   3  -8   10.11    1.63
  -1   3   8    4.71    1.99
   0  -3  -8    0.09    1.12
   0  -3   8   -1.39    1.50
   0  -3  -8    2.66    0.98
   0   3   8    0.49    1.23
   0   3  -8    2.40    0.95
   0   3   8   -0.93    2.60
   0   3  -8    0.68    0.80
   0   3   8   -0.95    1.52
   0   3  -8    3.43    1.45
   0   3   8    1.79    2.62
   0   3  -8   -3.79    2.75
   1  -3   8   15.82    2.62
  -1  -3  -8    9.97    1.75
   1  -3   8   12.59    1.84
  -1  -3  -8   10.34    1.40
  -1  -3  -8   10.67    1.67
  -1   3  -8    7.66    1.40
  -1   3  -8   12.31    1.46
  -1   3  -8   12.34    1.76
   1   3   8   10.21    1.74
  -1   3  -8   11.79    1.50
   1   3   8   11.03    2.13
  -1   3  -8    8.79    3.49
  -2  -3  -8    7.70    1.38
  -2  -3  -8   10.98    1.42
  -2  -3  -8    8.01    1.88
   2  -3   8    9.80    1.74
  -2  -3  -8   13.80    1.68
   2  -3   8   10.27    1.69
   2   3   8   10.85    1.43
  -2   3  -8    9.80    1.45
  -2   3  -8   10.27    1.53
   2   3   8   10.28    1.77
  -2   3  -8    7.63    1.33
  -2   3  -8    8.85    2.73
   2   3   8   10.20    1.86
  -3  -3  -8    4.21    0.90
  -3  -3  -8    3.34    1.18
   3  -3   8    2.52    1.64
   3  -3   8    3.05    1.19
  -3  -3  -8    2.18    1.54
   3  -3   8    3.20    1.38
  -3  -3  -8   -0.43    2.08
  -3  -3  -8    3.40    0.78
   3   3   8    1.58    1.28
  -3   3  -8    3.26    0.86
  -3   3  -8    2.75    0.82
   3   3   8    1.55    1.25
  -3   3  -8    4.31    0.91
  -3   3  -8    3.62    1.02
   4  -3   8    8.24    1.80
  -4  -3  -8   13.73    1.62
   4  -3   8   16.74    2.24
  -4  -3  -8   12.50    1.47
   4  -3   8   14.39    2.21
   4  -3   8   16.33    2.45
  -4   3  -8   13.89    1.63
   4   3   8   13.37    1.89
  -4   3  -8   13.16    1.67
  -4   3  -8   16.60    1.88
  -4   3  -8   18.17    2.20
   5  -3   8    1.86    0.85
   5  -3   8    1.12    0.94
   5  -3   8    3.92    1.53
   5  -3   8    2.25    0.99
  -5  -3  -8    2.24    0.75
   5   3   8    4.16    0.96
  -5   3  -8    3.35    0.81
  -5   3  -8    4.55    0.98
   5  -4  -8    0.84    1.24
   5  -4  -8    2.19    0.73
  -5  -4   8    2.88    1.24
   5  -4  -8    1.42    1.40
  -5  -4   8    1.06    0.73
   5  -4  -8    1.82    0.78
  -5   4   8    0.30    0.59
   5   4  -8   -0.03    1.09
   5   4  -8    0.94    0.58
   4  -4  -8    2.64    1.42
  -4  -4   8    3.91    1.27
  -4  -4   8    2.91    0.88
  -4  -4   8    1.07    0.91
   4  -4  -8    1.29    1.09
   4  -4  -8    2.88    0.93
   4   4  -8    1.46    0.80
   4   4  -8    0.42    1.31
  -4   4   8    2.03    0.76
   4   4  -8    2.31    1.49
  -4   4   8    1.42    0.82
  -3  -4   8    3.89    0.94
   3  -4  -8    1.51    1.32
  -3  -4   8    0.45    0.93
   3  -4  -8    0.45    1.23
  -3  -4   8    3.88    1.33
   3  -4  -8    1.90    0.96
   3  -4  -8    3.18    1.06
   3  -4  -8    2.55    1.73
  -3   4   8    2.62    0.80
  -3   4   8    3.60    0.92
   3   4  -8    0.70    1.51
   3   4  -8    2.92    1.07
   3   4  -8    4.42    2.05
  -3   4   8    5.14    1.38
   3   4  -8    1.42    0.92
   2  -4  -8    5.95    1.45
   2  -4  -8    4.45    1.18
   2  -4  -8    4.31    1.21
   2  -4  -8    4.59    1.99
  -2  -4   8    5.47    0.92
   2  -4  -8    4.26    1.47
  -2  -4   8    7.11    2.78
  -2  -4   8    4.42    1.25
  -2   4   8    6.84    3.11
   2   4  -8    2.61    1.55
  -2   4   8    5.08    1.03
   2   4  -8    5.03    1.33
  -2   4   8    3.40    0.83
   2   4  -8    5.82    1.14
  -1  -4   8    9.41    1.77
  -1  -4   8    9.98    2.18
   1  -4  -8    8.72    1.38
   1  -4  -8    6.73    1.28
   1  -4  -8   12.56    2.63
   1  -4  -8    9.54    1.37
   1  -4  -8   10.23    3.58
   1   4  -8   12.62    1.97
   1   4  -8    8.02    1.49
  -1   4   8   12.25    1.86
   1   4  -8    8.42    1.08
   1   4  -8    7.40    1.37
  -1   4   8   11.44    2.41
  -1   4   8   11.21    1.36
   0  -4  -8    5.72    1.20
   0  -4  -8    6.56    1.33
   0  -4   8    6.05    1.67
   0  -4   8    7.12    1.30
   0   4  -8   10.33    1.37
   0   4  -8    8.42    1.66
   0   4   8    2.12    3.38
   0   4  -8    5.12    1.18
   0   4  -8    1.86    3.51
   0   4   8    6.31    1.42
   0   4   8    8.30    1.26
   1  -4   8    7.82    1.48
  -1  -4  -8    9.84    1.58
  -1  -4  -8    9.08    1.28
  -1  -4  -8   10.83    1.64
   1  -4   8    7.64    1.52
   1   4   8    2.83    2.19
   1   4   8   10.41    1.82
   1   4   8    6.87    1.11
  -1   4  -8    6.82    1.24
  -1   4  -8    7.17    4.27
  -1   4  -8    9.99    1.44
  -1   4  -8    8.81    1.38
   2  -4   8    6.16    1.50
  -2  -4  -8    7.20    2.69
   2  -4   8    8.11    1.51
  -2  -4  -8    5.62    1.22
  -2   4  -8    6.67    1.14
  -2   4  -8    6.40    1.03
  -2   4  -8   10.88    3.14
  -2   4  -8    5.41    1.07
  -2   4  -8    3.91    1.10
   2   4   8    4.00    1.21
  -3  -4  -8    0.41    1.11
   3  -4   8    3.25    1.75
  -3  -4  -8    1.45    0.74
   3  -4   8   -1.19    1.59
   3  -4   8    0.28    1.12
   3  -4   8    1.53    1.32
  -3  -4  -8    2.79    2.20
  -3   4  -8    0.85    0.98
  -3   4  -8    2.23    0.81
   3   4   8    0.76    1.11
  -3   4  -8    2.24    0.80
  -3   4  -8    1.08    0.80
   3   4   8    2.05    1.28
   4  -4   8    1.12    1.03
   4  -4   8    5.50    2.31
  -4  -4  -8    0.94    0.61
  -4  -4  -8    1.49    0.74
   4  -4   8    2.40    1.11
   4  -4   8    1.23    0.84
   4   4   8    0.58    1.93
   4   4   8    1.26    0.93
  -4   4  -8    1.05    0.92
  -4   4  -8    0.89    0.72
  -4   4  -8    3.03    0.82
  -4   4  -8    2.21    0.79
   5  -4   8    0.40    0.92
  -5  -4  -8    0.53    0.47
  -5  -4  -8   -1.92    1.19
   5  -4   8    1.39    0.92
   5  -4   8    2.32    0.78
  -5  -4  -8    1.18    1.08
  -5   4  -8    0.83    0.71
  -5   4  -8    1.81    0.84
   5   4   8    1.01    0.70
  -5   4  -8   -0.22    0.67
   5   4   8    0.42    1.33
  -5  -5   8    3.11    0.92
   5  -5  -8    1.19    0.61
  -5  -5   8    2.02    1.35
   5  -5  -8   -0.56    0.69
   5  -5  -8    0.30    0.88
   5  -5  -8    2.82    1.17
  -5   5   8    3.00    0.65
   5   5  -8    2.69    1.19
   4  -5  -8    1.87    1.30
  -4  -5   8    4.59    1.01
   4  -5  -8    2.53    0.83
   4  -5  -8    1.13    1.97
   4  -5  -8    2.46    1.08
  -4   5   8    3.87    0.78
   4   5  -8    1.53    0.85
  -4   5   8    3.28    0.91
   3  -5  -8    9.09    1.24
   3  -5  -8    6.56    1.09
   3  -5  -8    8.61    1.91
   3  -5  -8    7.38    1.47
  -3  -5   8    7.11    1.17
  -3   5   8    8.94    1.18
  -3   5   8    5.90    1.11
   3   5  -8    5.34    1.14
   3   5  -8    8.06    1.20
  -2  -5   8   12.00    2.51
   2  -5  -8    8.57    1.47
  -2  -5   8   12.42    1.90
   2  -5  -8    9.21    1.58
   2  -5  -8   17.58    4.05
   2   5  -8    6.95    1.27
   2   5  -8    5.36    1.34
  -2   5   8    8.76    1.25
  -2   5   8    9.52    1.45
  -1  -5   8    5.22    3.20
  -1  -5   8    2.89    1.20
   1  -5  -8    2.16    2.28
   1  -5  -8    4.37    1.20
   1  -5  -8    1.83    1.05
   1   5  -8   -1.40    2.16
  -1   5   8    2.17    0.85
  -1   5   8    4.29    3.02
   1   5  -8    3.44    1.02
  -1   5   8    3.02    1.10
  -1   5   8    3.69    1.32
   1   5  -8    5.08    1.23
   0  -5  -8    1.62    1.05
   0  -5  -8    0.44    2.03
   0  -5   8    1.46    1.41
   0  -5  -8    1.13    1.07
   0  -5   8    1.63    1.09
   0   5  -8   -0.25    0.79
   0   5   8   -0.22    1.13
   0   5  -8   -2.09    2.60
   0   5  -8    1.22    0.99
   0   5  -8    2.68    2.65
   0   5  -8    1.14    0.87
   0   5   8    1.79    0.85
   0   5   8    2.34    0.78
   1  -5   8    1.58    1.52
  -1  -5  -8    3.76    1.16
   1  -5   8    3.55    1.32
  -1   5  -8    2.64    1.04
  -1   5  -8   -0.59    1.85
  -1   5  -8    2.73    0.99
  -1   5  -8    3.17    0.86
  -1   5  -8    2.20    0.90
   1   5   8    3.73    1.34
   1   5   8    5.92    2.53
   2  -5   8    6.29    1.46
   2  -5   8    6.73    1.38
  -2  -5  -8    6.56    1.65
   2  -5   8    6.69    2.36
  -2  -5  -8    9.67    1.56
  -2   5  -8    6.08    1.21
   2   5   8    9.44    1.79
  -2   5  -8    8.71    1.17
   2   5   8    3.71    2.07
  -2   5  -8    7.20    1.08
  -2   5  -8    8.24    1.13
   3  -5   8    4.93    1.74
   3  -5   8    9.09    1.57
  -3  -5  -8    7.12    1.62
  -3  -5  -8    4.38    2.20
  -3   5  -8    9.29    1.56
  -3   5  -8   11.26    1.41
   3   5   8    8.27    1.46
  -3   5  -8    7.51    1.09
   4  -5   8    1.58    1.30
   4  -5   8    1.64    1.06
  -4  -5  -8    1.24    1.81
   4  -5   8    2.51    1.58
  -4  -5  -8    2.07    0.56
  -4   5  -8    4.00    0.84
   4   5   8    2.13    0.99
  -4   5  -8    3.51    0.98
   4   5   8    0.05    1.63
  -4   5  -8    3.16    0.77
   5  -5   8   -0.29    0.64
  -5  -5  -8   -1.55    1.44
   5  -5   8    0.32    0.94
   5  -5   8    0.02    0.73
  -5   5  -8    1.10    0.62
  -5   5  -8   -0.01    0.68
   5   5   8    0.80    0.63
   4  -6  -8    6.09    1.74
   4  -6  -8    4.38    0.90
  -4  -6   8    4.32    1.07
  -4   6   8    4.18    0.96
  -4   6   8    4.52    0.78
   3  -6  -8    7.70    2.01
   3  -6  -8    4.82    0.97
   3  -6  -8    4.05    1.25
  -3   6   8    5.61    0.95
   3   6  -8    6.13    1.61
  -3   6   8    3.27    1.47
   3   6  -8    4.99    1.06
  -2  -6   8    7.60    2.07
   2  -6  -8    5.74    1.32
   2  -6  -8    5.03    1.05
  -2  -6   8    7.29    2.29
   2   6  -8    6.36    1.18
   2   6  -8    3.90    1.23
  -2   6   8    5.62    1.15
  -2   6   8    4.35    0.90
  -1  -6   8   11.12    2.11
  -1  -6   8    9.59    1.52
   1  -6  -8    8.45    2.09
   1  -6  -8    6.23    1.34
   1  -6  -8    9.26    1.70
   1   6  -8    6.88    1.42
  -1   6   8    8.42    1.32
   1   6  -8    8.02    1.54
   1   6  -8    6.92    1.23
   0  -6  -8    9.91    1.54
   0  -6   8   12.02    1.89
   0  -6   8   14.50    2.00
   0  -6  -8   16.61    2.98
   0   6   8    9.69    1.59
   0   6  -8   11.62    1.73
   0   6   8   13.42    1.47
   0   6  -8   13.28    1.72
   0   6  -8   12.55    2.21
   0   6  -8   11.93    1.57
   0   6  -8   13.38    2.18
  -1  -6  -8    9.04    2.12
   1  -6   8    8.84    1.98
   1  -6   8    7.27    1.75
  -1   6  -8    7.20    1.16
  -1   6  -8    8.37    1.16
   1   6   8    3.23    2.50
  -1   6  -8    8.36    1.23
  -1   6  -8    5.20    1.16
  -2  -6  -8    4.10    1.46
   2  -6   8    7.70    1.33
   2  -6   8    6.77    1.32
   2  -6   8    9.41    1.65
   2  -6   8    2.91    2.06
  -2   6  -8    7.68    1.16
  -2   6  -8    8.40    1.64
  -2   6  -8    7.10    1.05
   2   6   8    7.74    1.90
   2   6   8    7.21    0.96
  -2   6  -8    5.20    1.68
   3  -6   8    5.17    1.08
  -3  -6  -8    9.34    1.94
   3  -6   8    3.78    1.22
  -3   6  -8    3.16    0.85
  -3   6  -8    5.34    0.99
  -3   6  -8    5.38    1.04
  -3   6  -8    5.76    0.97
   4  -6   8    2.07    1.00
   4  -6   8    3.91    1.21
   4  -6   8    3.73    0.94
  -4  -6  -8    5.33    1.48
  -4   6  -8    5.41    0.87
  -4   6  -8    4.10    0.76
   4   6   8    3.52    1.12
  -4   6  -8    5.49    0.91
   4  -7  -8    3.37    0.94
   4  -7  -8    3.81    0.71
   4   7  -8    3.83    0.88
  -4   7   8    5.02    0.73
  -4   7   8    2.65    0.82
   3  -7  -8    3.67    0.93
  -3  -7   8    4.16    1.10
   3  -7  -8    2.11    1.05
  -3  -7   8    3.80    2.79
  -3   7   8    4.25    0.82
  -3   7   8    3.27    0.83
   2  -7  -8    5.94    2.22
   2  -7  -8    6.83    1.10
  -2  -7   8    6.28    1.26
   2  -7  -8    4.62    1.04
   2  -7  -8    4.64    1.31
  -2  -7   8    8.11    2.19
  -2   7   8    5.08    0.87
  -2   7   8    5.06    0.94
   2   7  -8    4.39    1.18
  -1  -7   8    3.94    1.26
   1  -7  -8    4.91    1.51
   1  -7  -8    3.35    0.97
  -1  -7   8    6.95    1.63
  -1   7   8    3.08    0.93
   1   7  -8    5.02    1.56
   1   7  -8    4.10    1.05
   1   7  -8    4.24    0.76
   0  -7   8   11.38    1.71
   0  -7   8   11.37    1.72
   0  -7  -8   11.68    1.89
   0  -7  -8   10.46    2.44
   0   7  -8   13.46    2.19
   0   7   8   11.08    1.54
   0   7  -8    7.48    2.64
   0   7  -8   13.63    1.57
   0   7  -8   13.27    1.75
   1  -7   8    4.30    1.24
  -1  -7  -8    3.19    1.09
   1  -7   8    6.04    1.84
   1   7   8    4.13    0.82
  -1   7  -8    3.03    1.42
   1   7   8    5.29    1.24
  -1   7  -8    4.34    0.86
   1   7   8    2.67    3.01
  -1   7  -8    2.86    1.28
  -1   7  -8    5.17    1.12
   2  -7   8    6.59    1.19
   2  -7   8    6.84    1.25
  -2  -7  -8    4.52    1.38
  -2   7  -8    5.74    1.12
   2   7   8    5.42    2.07
  -2   7  -8    6.83    2.03
   2   7   8    8.04    1.21
  -2   7  -8    5.92    0.93
  -3  -7  -8    4.76    1.73
   3  -7   8    1.36    1.07
   3  -7   8    0.92    1.27
   3  -7   8    1.74    1.11
  -3   7  -8    4.80    0.84
  -3   7  -8    3.67    0.91
  -3   7  -8    4.30    0.97
   3   7   8    4.19    2.72
   4  -7   8    1.76    1.05
   4  -7   8    2.03    0.73
   4  -7   8    1.00    1.17
  -4   7  -8    4.53    0.97
  -4   7  -8    3.70    0.72
   4   7   8    2.56    1.02
  -4   7  -8    2.52    0.67
  -3  -8   8   -0.06    1.94
  -3  -8   8   -1.77    2.27
   3  -8  -8    0.66    0.59
   3  -8  -8    1.21    0.82
   3  -8  -8    3.34    1.58
  -3   8   8    1.52    1.20
   3   8  -8    5.63    2.01
  -3   8   8    1.69    0.70
   3   8  -8    1.10    0.93
  -2  -8   8    3.53    1.80
  -2  -8   8    3.58    1.34
   2  -8  -8    1.54    2.04
  -2   8   8    3.07    0.78
   2   8  -8    3.50    1.15
  -1  -8   8    1.33    1.37
  -1  -8   8    0.84    2.77
  -1   8   8    3.10    0.79
   1   8  -8    5.50    0.95
   1   8  -8    2.12    0.72
   1   8  -8    7.27    1.69
   0  -8   8    1.47    1.18
   0  -8  -8    0.57    0.92
   0   8  -8    0.30    0.71
   0   8   8   -0.31    0.67
   0   8  -8    0.92    0.84
  -1  -8  -8    1.21    1.02
   1  -8   8    4.84    1.10
   1  -8   8    2.50    0.98
  -1   8  -8    4.23    0.82
   1   8   8    6.41    1.35
   1   8   8    4.58    3.85
  -1   8  -8    3.36    1.03
   2  -8   8    1.93    2.55
  -2  -8  -8    2.02    1.31
   2  -8   8    3.11    0.98
   2  -8   8    2.91    0.97
  -2   8  -8    3.33    0.87
  -2   8  -8    0.40    1.70
   2   8   8    3.42    0.80
  -2   8  -8    4.64    0.82
   2   8   8    5.93    2.42
  -2   8  -8    3.51    0.76
  -3  -8  -8    1.54    1.44
   3  -8   8    1.17    1.23
  -3   8  -8    2.67    0.84
  -3   8  -8    1.27    0.81
   3   8   8    1.87    1.27
  -3   8  -8    1.09    0.64
   3  -9  -8    0.93    0.99
  -3  -9   8   -4.69    3.11
   3   9  -8    0.65    1.30
  -3   9   8    0.12    0.57
  -2  -9   8    4.27    1.42
   2   9  -8    4.35    1.24
  -2   9   8    3.27    0.72
   1  -9  -8    5.23    1.36
   1  -9  -8    2.10    1.68
  -1  -9   8    2.69    1.29
   1  -9  -8    1.04    2.27
  -1   9   8    0.75    1.03
   1   9  -8    2.46    0.91
   1   9  -8    1.95    0.49
   0  -9  -8    3.16    1.40
   0  -9   8    4.18    1.51
   0   9  -8    3.56    0.86
  -1  -9  -8    2.21    1.14
   1  -9   8    2.59    1.50
   1   9   8    1.66    0.88
   1   9   8    3.20    0.68
  -1   9  -8    3.76    0.90
  -1   9  -8    5.19    0.88
   2  -9   8    2.14    0.82
   2  -9   8    2.35    0.88
  -2  -9  -8    2.37    1.05
  -2   9  -8    3.79    0.69
   2   9   8    0.79    2.32
  -2   9  -8    2.78    0.98
   3  -9   8    0.64    0.63
  -3  -9  -8   -0.80    1.17
  -3   9  -8    2.30    0.80
  -3   9  -8    1.92    0.70
  -3   9  -8    1.14    0.57
   3   9   8    3.24    1.25
  -1 -10   8    3.29    1.09
  -1  10   8    2.33    0.70
  -1  10   8    1.50    0.55
   1  10  -8   -0.36    2.99
   0 -10   8   11.46    1.67
   0 -10  -8   11.90    1.52
   0  10  -8   10.23    1.49
   0  10  -8    8.66    0.96
   0  10   8    7.59    1.11
   1 -10   8    1.96    0.73
  -1 -10  -8    1.30    0.84
  -1  10  -8    3.30    0.67
  -1  10  -8    2.02    1.02
   1  10   8    3.56    0.89
  -5   0   9    6.84    1.62
   5   0  -9    4.69    1.23
   5   0  -9    3.42    1.37
  -4   0   9   13.34    1.87
   4   0  -9   16.18    2.03
   4   0  -9   20.29    3.62
  -4   0   9   15.25    1.62
  -4   0   9   12.84    2.05
   3   0  -9    2.60    1.06
   3   0  -9   -0.31    0.79
  -3   0   9    0.52    0.84
  -3   0   9   -0.48    1.13
  -3   0   9   -0.13    1.04
   3   0  -9    3.84    2.18
   3   0  -9   -2.64    2.00
   3   0  -9    1.32    1.59
  -2   0   9    0.88    1.09
  -2   0   9    2.31    0.87
   2   0  -9    0.96    1.01
  -2   0   9    1.56    1.00
   2   0  -9    1.83    1.14
   2   0  -9    3.02    3.19
  -1   0   9    2.08    1.07
   1   0  -9    3.23    1.33
   1   0  -9    3.13    1.21
  -1   0   9    4.36    0.94
  -1   0   9    1.76    1.18
   1   0  -9    2.27    1.03
   0   0   9    2.10    2.22
   0   0  -9    1.58    1.77
   0   0  -9    1.43    0.89
   0   0  -9    0.33    0.90
   0   0   9    0.31    0.96
   1   0   9   -1.19    1.56
  -1   0  -9    5.17    1.80
  -1   0  -9    2.22    0.79
   1   0   9    0.96    1.12
  -1   0  -9    2.39    1.01
   2   0   9    5.78    2.19
   2   0   9    2.32    1.15
  -2   0  -9   -0.19    3.47
  -2   0  -9   -2.88    4.17
  -2   0  -9    2.98    1.07
   3   0   9   -0.18    1.05
  -3   0  -9    0.21    0.61
  -3   0  -9    0.96    0.85
  -3   0  -9    1.38    1.13
   3   0   9    0.87    1.66
   4   0   9    1.76    0.88
   4   0   9    3.77    0.86
   5   0   9    1.97    0.75
  -5   0  -9    2.68    0.58
   5   0   9    3.84    0.91
  -5  -1   9    3.61    0.70
   5  -1  -9    3.31    1.76
   5  -1  -9    0.86    1.42
   5  -1  -9    3.01    0.95
  -5  -1   9    4.28    1.02
   5   1  -9    1.76    2.29
   5   1  -9    0.40    0.92
  -4  -1   9    1.96    0.76
   4  -1  -9    3.98    0.87
  -4  -1   9    3.09    1.12
   4  -1  -9    1.35    1.46
   4  -1  -9    2.53    1.19
   4  -1  -9    2.47    1.67
   4  -1  -9    2.62    1.75
  -4  -1   9    2.24    0.91
  -4   1   9    2.05    0.75
   4   1  -9    2.20    2.47
   4   1  -9    4.66    1.84
  -4   1   9    0.03    0.85
  -3  -1   9    7.34    1.21
  -3  -1   9    5.20    1.33
   3  -1  -9    7.35    2.11
   3  -1  -9    8.08    1.90
   3  -1  -9    8.10    2.20
  -3  -1   9    7.40    1.75
   3  -1  -9    4.84    1.19
  -3   1   9    7.13    1.15
   3   1  -9    6.18    1.17
  -3   1   9    5.33    1.62
   3   1  -9    5.06    1.02
   2  -1  -9    0.45    0.97
   2  -1  -9    1.85    1.57
   2  -1  -9   -2.54    2.29
  -2  -1   9    1.50    1.00
  -2  -1   9    1.61    0.88
  -2   1   9    2.88    1.06
   2   1  -9    2.55    1.09
  -2   1   9    0.54    1.17
  -2   1   9    0.43    1.27
   2   1  -9    0.86    0.95
   2   1  -9    1.57    1.38
   1  -1  -9    6.82    1.27
  -1   1   9    1.57    1.15
  -1   1   9    4.20    0.92
  -1   1   9    3.61    1.03
   0  -1  -9    8.86    2.35
   0  -1  -9    4.27    1.11
   0  -1   9    3.90    1.09
   0   1  -9    5.15    0.96
   0   1   9    4.46    2.07
   0   1   9    5.01    1.34
   0   1  -9    6.67    1.57
   0   1  -9    4.24    1.07
  -1  -1  -9    6.60    0.92
  -1  -1  -9    7.46    1.30
   1  -1   9   10.14    1.73
  -1  -1  -9    6.62    2.26
   1  -1   9   10.94    1.96
   1   1   9    8.08    1.59
  -1   1  -9    6.20    1.26
  -1   1  -9    7.86    1.19
   1   1   9   11.15    2.06
   1   1   9    9.93    1.24
   2  -1   9    0.80    1.10
  -2  -1  -9    1.07    0.92
  -2  -1  -9    0.80    2.03
  -2  -1  -9    2.19    1.05
   2  -1   9    2.73    1.53
   2   1   9    2.65    1.37
   2   1   9    1.13    1.10
  -2   1  -9    2.11    0.96
  -3  -1  -9    2.05    0.64
   3  -1   9    1.81    1.43
   3  -1   9    2.39    1.06
  -3   1  -9    5.50    1.13
  -3   1  -9    2.68    0.72
  -3   1  -9    5.22    0.96
   3   1   9    2.69    1.15
  -3   1  -9    3.19    1.09
   3   1   9    3.21    1.47
  -4  -1  -9    2.37    0.71
  -4  -1  -9    3.88    1.39
   4  -1   9    1.12    0.80
  -4   1  -9    2.43    0.80
   4   1   9    2.05    0.90
   4   1   9    1.23    0.93
  -4   1  -9    2.63    0.80
  -4   1  -9    1.10    1.36
  -5  -1  -9    2.83    0.56
   5  -1   9    3.95    0.92
  -5   1  -9    3.07    0.98
  -5   1  -9    2.51    0.57
   4  -2  -9    2.71    1.24
  -4  -2   9    2.53    1.18
  -4  -2   9    3.98    1.06
  -4  -2   9    3.24    0.74
   4  -2  -9    1.16    1.40
   4  -2  -9    1.64    1.04
  -4   2   9    1.24    1.21
  -4   2   9    0.14    0.68
   4   2  -9    4.34    1.82
  -3  -2   9    5.08    0.98
  -3  -2   9    4.81    1.21
   3  -2  -9    3.78    0.91
  -3  -2   9    3.43    1.01
   3  -2  -9    5.62    1.26
   3  -2  -9    3.61    1.17
  -3   2   9    6.15    1.43
   3   2  -9    8.11    3.22
  -3   2   9    7.78    1.77
  -3   2   9    4.84    0.98
   3   2  -9    6.40    1.45
   2  -2  -9    2.21    1.40
   2  -2  -9   10.09    3.65
   2  -2  -9    2.76    1.70
   2  -2  -9    4.60    1.08
   2  -2  -9    4.42    0.98
  -2  -2   9    2.54    1.06
   2   2  -9    3.69    1.14
  -2   2   9    2.14    0.89
   2   2  -9    3.48    1.07
  -2   2   9    3.36    1.44
  -2   2   9    3.54    1.02
   1  -2  -9    0.64    0.96
  -1  -2   9    4.06    2.21
   1  -2  -9    1.00    1.02
  -1  -2   9    0.60    0.99
   1   2  -9    1.44    1.07
  -1   2   9    1.15    1.11
  -1   2   9    3.78    0.94
   1   2  -9    2.12    1.22
  -1   2   9    0.03    1.08
   0  -2  -9    6.45    1.37
   0  -2   9    3.21    2.06
   0  -2   9    7.09    1.38
   0  -2  -9    5.27    1.14
   0   2  -9    7.99    1.13
   0   2   9    6.25    1.41
   0   2  -9    5.64    1.21
   0   2  -9    7.21    1.61
   1  -2   9    0.35    1.11
  -1  -2  -9    0.60    0.90
   1  -2   9    1.95    1.49
  -1   2  -9   -0.20    0.87
   1   2   9    2.45    1.11
  -1   2  -9    0.75    0.68
  -1   2  -9    3.04    1.74
  -2  -2  -9    3.73    1.68
  -2  -2  -9    5.06    1.21
   2  -2   9    3.79    1.29
   2  -2   9    3.79    1.32
  -2  -2  -9    5.81    1.99
   2   2   9    5.24    1.55
  -2   2  -9    4.50    1.07
   2   2   9    3.71    1.29
  -2   2  -9    4.31    0.84
   3  -2   9    2.99    1.02
  -3   2  -9    4.64    1.12
  -3   2  -9    2.32    0.70
   3   2   9    4.07    1.53
  -3   2  -9    3.29    1.01
   3   2   9    3.69    1.23
   4  -2   9    0.55    1.24
  -4  -2  -9   -0.22    0.80
   4  -2   9    2.48    1.11
  -4   2  -9    1.36    1.02
  -4   2  -9    1.02    0.81
  -4   2  -9    1.71    0.67
  -4   2  -9    2.21    1.29
   4   2   9    0.07    0.76
   4  -3  -9    4.16    0.97
   4  -3  -9    6.61    1.67
  -4  -3   9    4.66    0.92
   4  -3  -9    5.19    1.13
  -4   3   9    5.56    0.90
  -4   3   9    4.97    1.59
   4   3  -9    6.72    1.01
  -3  -3   9    1.92    0.86
   3  -3  -9    1.71    1.21
  -3  -3   9    1.44    1.05
   3  -3  -9    1.01    0.84
   3  -3  -9    1.35    1.03
  -3   3   9    2.98    1.44
  -3   3   9    2.48    0.97
  -3   3   9    1.09    0.79
   3   3  -9    3.42    1.68
   3   3  -9    0.94    0.84
  -2  -3   9    3.20    1.93
   2  -3  -9    5.42    1.07
   2  -3  -9   13.10    3.15
   2  -3  -9    7.21    1.44
  -2  -3   9    7.64    1.15
  -2   3   9    7.76    1.21
   2   3  -9    7.12    1.22
   2   3  -9   10.15    2.06
   2   3  -9    5.55    1.22
  -1  -3   9    5.74    1.36
   1  -3  -9    5.24    1.11
  -1  -3   9    4.53    2.22
  -1   3   9    8.65    1.66
  -1   3   9    6.81    1.05
   1   3  -9    5.98    1.33
   1   3  -9    7.38    1.23
  -1   3   9    4.46    1.50
   1   3  -9    7.82    1.43
   0  -3   9   -0.26    0.93
   0  -3  -9   -0.22    0.84
   0   3  -9    2.25    1.46
   0   3   9    0.82    2.73
   0   3  -9    0.97    0.94
   0   3   9    0.94    1.36
   1  -3   9    7.53    1.84
   1  -3   9    8.27    2.40
   1  -3   9   13.48    2.71
  -1  -3  -9    5.98    1.55
  -1  -3  -9    7.38    1.27
  -1  -3  -9    8.28    1.15
  -1   3  -9    2.44    2.18
   1   3   9    7.28    2.02
   1   3   9    8.14    1.51
  -1   3  -9    5.97    1.13
   1   3   9    6.27    0.94
   2  -3   9    7.28    1.86
  -2  -3  -9    6.07    1.80
   2  -3   9    4.46    1.39
  -2  -3  -9    7.20    1.07
   2   3   9    5.47    2.13
  -2   3  -9    4.07    0.80
  -2   3  -9    2.59    1.47
   2   3   9    3.33    1.53
   3  -3   9    1.50    1.16
   3  -3   9    1.70    1.86
   3  -3   9    0.60    0.95
  -3  -3  -9    1.33    0.64
  -3   3  -9    1.28    1.00
   3   3   9    0.29    1.08
  -3   3  -9    0.61    0.64
   3   3   9    0.41    1.02
  -3   3  -9    0.93    1.02
   4  -3   9    8.58    1.28
   4  -3   9    7.84    1.54
  -4   3  -9    7.25    1.69
   4   3   9    4.84    1.05
  -4   3  -9    4.54    0.72
   4   3   9    2.69    0.96
  -4  -4   9    2.04    1.81
   4  -4  -9    1.97    0.78
  -4  -4   9    1.41    0.95
   4  -4  -9    1.03    0.90
   4   4  -9    4.34    1.54
   4   4  -9    2.22    0.77
  -4   4   9    1.11    0.78
  -4   4   9    2.13    1.03
   3  -4  -9    0.18    0.73
  -3  -4   9    0.49    1.08
   3  -4  -9   -0.93    1.23
   3  -4  -9   -1.37    1.99
   3  -4  -9    0.58    0.97
   3   4  -9    2.10    2.18
   3   4  -9   -1.67    1.08
  -3   4   9    0.08    0.69
   3   4  -9    0.23    0.81
   2  -4  -9    4.78    1.20
  -2  -4   9    3.96    1.17
   2  -4  -9    2.93    1.18
   2  -4  -9    2.97    0.95
   2   4  -9    5.13    1.16
  -2   4   9    6.09    1.05
   2   4  -9    4.38    1.22
  -2   4   9    1.81    1.53
   1  -4  -9   11.27    1.83
   1  -4  -9    7.48    1.57
  -1  -4   9   13.10    2.29
  -1  -4   9   10.91    2.25
  -1   4   9   17.78    2.90
   1   4  -9   13.50    2.37
   1   4  -9   16.27    2.19
   0  -4  -9   -1.58    1.76
   0  -4   9   -0.68    1.49
   0  -4   9    1.60    1.13
   0  -4  -9    1.20    0.95
   0  -4   9   -1.01    2.35
   0  -4  -9    1.96    1.10
   0   4   9    1.66    0.78
   0   4  -9    0.96    1.51
   0   4   9    0.07    4.08
   0   4  -9    0.37    0.64
   0   4  -9    1.08    0.89
  -1  -4  -9   10.18    2.84
  -1  -4  -9    7.33    1.42
   1  -4   9    5.84    1.48
  -1  -4  -9    6.30    1.81
  -1   4  -9    4.75    1.15
   1   4   9    6.21    2.33
  -1   4  -9    6.83    0.93
   1   4   9    8.09    2.33
   1   4   9    9.59    1.25
  -2  -4  -9    2.77    1.64
  -2  -4  -9    2.88    0.67
   2  -4   9    5.76    1.41
   2  -4   9    4.09    1.70
   2  -4   9    4.82    1.28
  -2   4  -9    5.81    1.00
  -2   4  -9    3.41    1.35
  -2   4  -9    3.31    0.75
   2   4   9    5.47    1.67
  -2   4  -9    3.80    1.04
   2   4   9    0.49    1.45
   2   4   9    4.25    1.68
  -3  -4  -9   -0.45    2.20
   3  -4   9    1.34    1.27
   3  -4   9    1.67    0.92
  -3  -4  -9    0.78    0.58
   3  -4   9    1.10    1.16
  -3   4  -9    1.16    0.63
   3   4   9    0.00    1.05
   3   4   9    0.64    1.15
  -3   4  -9    0.84    0.75
   4  -4   9    1.43    1.17
  -4  -4  -9    0.41    0.85
   4  -4   9    0.88    0.86
   4   4   9    1.72    0.87
  -4   4  -9    1.46    0.59
  -4   4  -9    2.09    1.36
   4   4   9    0.72    1.16
   4  -5  -9   -1.24    2.38
   4  -5  -9   -0.15    0.80
  -4  -5   9   -0.08    0.80
   4  -5  -9   -0.57    0.67
  -4   5   9    1.94    0.62
   4   5  -9    4.88    1.53
   3  -5  -9    1.99    2.11
   3  -5  -9    3.97    0.95
   3  -5  -9    2.68    1.52
  -3  -5   9    3.06    1.46
   3   5  -9    3.48    1.21
  -3   5   9    5.41    0.86
  -3   5   9    2.85    1.07
  -2  -5   9    3.40    2.48
   2  -5  -9    3.18    1.09
   2  -5  -9    3.22    0.89
   2  -5  -9    5.37    1.08
  -2  -5   9    3.08    1.21
   2   5  -9    3.68    1.01
   2   5  -9    5.42    1.19
   2   5  -9    4.78    1.44
  -2   5   9    3.61    1.21
   1  -5  -9    2.25    0.91
  -1  -5   9    7.00    1.96
   1  -5  -9    2.29    1.23
  -1  -5   9    2.40    1.08
   1   5  -9    2.49    0.99
  -1   5   9    3.67    0.89
  -1   5   9    2.82    1.60
   1   5  -9    1.30    1.03
   1   5  -9    4.73    1.34
   0  -5  -9    1.77    0.98
   0  -5  -9    2.30    1.85
   0  -5   9    1.36    1.24
   0  -5   9    2.57    1.39
   0   5   9    1.42    0.78
   0   5  -9    2.05    0.67
   0   5  -9    4.72    1.38
   0   5   9    3.00    1.63
   0   5  -9    2.10    1.68
  -1  -5  -9    2.91    1.24
   1  -5   9    4.80    1.39
   1  -5   9    4.07    1.29
  -1   5  -9    3.12    1.58
   1   5   9    2.33    0.76
   1   5   9    0.45    1.57
   1   5   9    3.96    2.43
  -1   5  -9    2.89    0.74
   2  -5   9    4.40    1.23
  -2  -5  -9    2.83    3.04
   2  -5   9    5.28    1.32
   2  -5   9    2.91    2.06
  -2   5  -9    4.10    0.99
   2   5   9    3.84    1.63
  -2   5  -9    3.20    0.74
  -2   5  -9    4.73    0.90
  -3  -5  -9    3.75    3.34
   3  -5   9    4.28    1.15
  -3   5  -9    2.67    0.90
  -3   5  -9    2.23    1.39
   3   5   9    0.66    1.31
  -3   5  -9    2.70    0.74
   4  -5   9   -0.26    0.65
   4  -5   9   -1.09    0.76
  -4   5  -9    0.45    0.53
   4   5   9    0.06    0.86
   4   5   9   -0.25    0.43
  -4   5  -9   -0.47    0.65
   3  -6  -9    3.77    1.00
  -3  -6   9    4.23    1.00
   3  -6  -9    8.27    3.12
   3  -6  -9    4.25    0.85
  -3   6   9    2.83    0.74
   3   6  -9    5.61    0.99
  -3   6   9    3.24    1.06
  -2  -6   9    2.65    2.29
  -2  -6   9    2.11    0.93
   2  -6  -9    1.71    0.98
  -2   6   9    0.78    0.70
   2   6  -9    1.52    1.38
   2   6  -9    0.00    1.02
  -2   6   9    0.50    0.77
   1  -6  -9    2.20    0.85
  -1  -6   9    1.49    2.42
   1  -6  -9    2.74    2.08
  -1  -6   9    1.65    1.04
  -1   6   9    1.49    0.74
   1   6  -9    2.01    0.89
   1   6  -9    1.41    1.02
  -1   6   9    1.14    0.74
   0  -6   9    4.48    1.43
   0  -6   9    4.10    1.20
   0  -6  -9    4.42    2.08
   0  -6  -9    3.44    1.01
   0   6  -9    2.50    1.06
   0   6  -9    2.67    0.67
   0   6   9    3.02    0.79
   0   6  -9    5.55    1.82
   0   6  -9    5.42    1.51
  -1  -6  -9    1.95    1.13
   1  -6   9    2.63    1.20
   1  -6   9    4.10    1.84
  -1   6  -9    1.95    0.85
   1   6   9    1.72    0.75
  -1   6  -9    2.80    0.70
   1   6   9    7.16    2.59
   2  -6   9    1.22    1.24
   2  -6   9    4.43    1.67
   2  -6   9    1.03    0.94
  -2  -6  -9    0.15    1.23
  -2   6  -9    1.72    0.77
  -2   6  -9    1.21    0.62
   2   6   9   -0.16    1.60
  -2   6  -9    2.74    1.06
   3  -6   9    7.26    0.92
   3  -6   9    6.31    1.05
  -3   6  -9    6.55    0.90
  -3   6  -9    5.11    1.01
   3   6   9    6.90    1.36
   3  -7  -9    0.28    0.73
  -3   7   9   -0.51    0.61
   3   7  -9    0.73    0.80
  -3   7   9    0.44    0.41
   2  -7  -9    3.69    0.68
   2  -7  -9    2.80    0.97
  -2  -7   9    7.94    1.98
  -2  -7   9    2.36    1.08
  -2   7   9    2.64    0.71
  -1   7   9    0.67    0.89
   1   7  -9    1.85    1.38
   0  -7   9    4.69    1.44
   0  -7  -9    6.12    1.11
   0  -7   9    6.25    2.29
   0   7   9    5.46    1.12
   0   7   9    5.94    1.11
   0   7  -9    3.94    4.47
   0   7  -9    6.05    0.97
  -1  -7  -9    1.11    1.16
   1  -7   9    2.82    1.04
   1   7   9   -1.83    3.78
   1   7   9    1.71    0.66
   2  -7   9    3.62    1.03
   2  -7   9    5.08    1.01
   2   7   9    6.35    1.88
  -2   7  -9    3.79    0.69
  -2   7  -9    5.47    1.06
  -2   7  -9    4.43    0.91
   3  -7   9   -1.16    0.89
  -3  -7  -9   -1.04    1.44
   3  -7   9    0.48    0.99
  -3   7  -9    1.75    1.07
  -3   7  -9    1.87    0.74
  -3   7  -9    0.46    0.49
   3   7   9    0.13    1.42
   2  -8  -9    1.15    0.88
  -2  -8   9    3.20    1.41
   2   8  -9    1.88    1.00
  -2   8   9    1.60    0.57
   1  -8  -9    1.05    0.68
  -1  -8   9    1.48    1.31
  -1   8   9    0.75    0.59
   1   8  -9   -1.85    1.42
   0  -8   9    0.65    0.86
   0  -8  -9    0.60    0.76
   0  -8   9    0.11    1.04
   0   8  -9   -0.03    0.43
   0   8  -9    0.14    0.70
   0   8   9    0.28    0.58
  -1  -8  -9    2.26    0.90
   1  -8   9    1.85    0.92
   1  -8   9    0.62    0.75
   1   8   9    1.60    0.84
  -1   8  -9    0.77    0.51
  -2  -8  -9    0.92    1.27
   2  -8   9    1.96    0.77
   2  -8   9    1.51    0.78
   2   8   9    0.75    1.82
  -2   8  -9    1.94    0.66
  -2   8  -9    1.00    0.48
  -3   0  10   13.96    2.36
  -3   0  10   11.53    1.50
  -2   0  10    1.50    1.01
   2   0 -10    1.95    0.88
   2   0 -10    0.87    0.87
  -1   0  10   -1.96    3.09
   1   0 -10    0.26    1.20
  -1   0  10    1.84    1.35
   1   0 -10   -0.09    0.87
   1   0 -10   -0.51    0.98
   0   0 -10   -0.16    0.79
   0   0  10    0.06    1.12
   0   0 -10    0.66    1.30
   0   0  10    0.97    2.26
   1   0  10    1.08    1.19
  -1   0 -10   -1.16    2.18
   1   0  10    2.50    1.63
  -1   0 -10   -0.17    0.88
   2   0  10    1.71    1.26
   2   0  10    1.19    1.17
  -2   0 -10    1.01    0.81
  -2   0 -10    1.76    0.90
   3   0  10    2.49    0.98
  -3   0 -10    3.19    0.58
  -3  -1  10    4.21    1.69
   3  -1 -10    3.05    1.01
   3  -1 -10    3.34    0.78
  -3   1  10    6.90    1.41
  -3   1  10    5.88    0.98
   2  -1 -10    1.48    0.86
  -2  -1  10    1.88    0.94
   2  -1 -10    0.05    0.87
   2   1 -10    2.02    0.92
   2   1 -10    1.09    0.83
  -2   1  10    2.57    1.35
   1  -1 -10    1.54    0.94
   1  -1 -10    0.94    1.00
  -1  -1  10    1.51    1.28
  -1  -1  10    3.33    2.42
  -1   1  10    2.28    1.33
   1   1 -10    1.61    1.07
   1   1 -10    0.85    0.94
   1   1 -10    1.31    1.09
   0  -1 -10    0.51    0.86
   0  -1  10    1.59    2.04
   0  -1 -10    1.72    1.21
   0  -1  10    1.30    1.20
   0   1 -10    2.33    1.27
   0   1 -10    1.16    0.87
   0   1  10    3.07    1.38
  -1  -1 -10    1.70    0.93
  -1  -1 -10    3.55    3.14
   1  -1  10   -0.32    1.39
  -1   1 -10    1.53    0.90
  -1   1 -10    0.61    0.55
   1   1  10    1.59    1.54
   1   1  10   -0.44    1.22
  -1   1 -10   -2.31    1.72
  -2  -1 -10   -0.30    2.00
  -2  -1 -10    3.10    1.00
   2  -1  10    1.97    1.21
   2  -1  10    1.54    1.25
   2   1  10    4.14    1.30
  -2   1 -10    1.71    0.93
   2   1  10    1.48    1.95
   3   1  10    1.78    0.97
  -3   1 -10    2.26    0.51
   3   1  10    1.44    0.77
   3  -2 -10    4.49    1.33
  -3  -2  10    5.33    1.59
   3   2 -10    3.54    0.82
  -3   2  10    0.69    1.42
   2  -2 -10    0.73    0.86
   2  -2 -10    1.45    0.99
  -2  -2  10    2.08    0.95
   2  -2 -10    0.76    0.80
   2   2 -10    0.77    0.87
   2   2 -10    1.97    1.36
  -2   2  10    1.78    1.08
  -1  -2  10    3.38    1.08
   1  -2 -10    1.66    0.95
   1  -2 -10    2.33    0.95
  -1  -2  10   -0.19    2.47
   1   2 -10   -0.19    1.13
   1   2 -10    2.07    1.17
   1   2 -10    2.13    0.96
  -1   2  10    1.45    1.26
   0  -2  10   -0.60    1.13
   0  -2  10    0.77    1.75
   0  -2 -10    0.33    0.87
   0  -2 -10    0.65    1.10
   0   2  10    0.02    0.72
   0   2 -10    0.28    1.75
   0   2 -10    0.67    0.90
   0   2  10    2.88    2.60
   1  -2  10    1.83    1.45
  -1  -2 -10    1.05    0.92
   1  -2  10    4.10    1.41
   1   2  10    1.50    2.92
   1   2  10    2.06    1.30
  -1   2 -10    1.64    0.93
  -1   2 -10    1.89    1.94
  -1   2 -10    1.30    0.59
   2  -2  10    2.14    1.19
  -2  -2 -10    3.46    0.99
   2  -2  10    0.21    1.03
  -2  -2 -10    1.15    0.53
  -2  -2 -10    0.60    1.75
  -2   2 -10    2.28    0.94
   2   2  10    2.79    1.43
  -3  -2 -10    1.31    0.44
   3  -2  10    1.32    0.85
  -3   2 -10    1.64    0.52
   3   2  10    1.56    0.98
   3   2  10    0.50    0.76
   3  -3 -10    3.10    0.93
  -3  -3  10    3.47    1.03
   3  -3 -10    3.56    0.67
  -3   3  10    7.31    1.04
   3   3 -10    6.01    1.01
  -2  -3  10   -4.75    5.60
   2  -3 -10    1.12    1.34
   2   3 -10    4.81    0.95
  -2   3  10    7.14    1.60
   2   3 -10    1.13    1.58
  -2   3  10    4.38    1.21
   1  -3 -10    4.21    0.99
   1  -3 -10    2.25    1.00
  -1  -3  10    2.60    1.23
   1  -3 -10    2.32    1.66
  -1  -3  10    0.49    2.34
  -1   3  10    3.71    1.55
   1   3 -10    2.72    0.89
   1   3 -10    2.01    1.48
   1   3 -10    4.07    1.73
   0  -3 -10    1.39    1.10
   0  -3 -10    1.06    0.95
   0  -3  10    0.15    1.05
   0   3 -10    2.63    1.00
   0   3 -10   -0.03    0.87
   0   3  10    1.74    1.26
   0   3 -10    0.63    1.53
   0   3  10    4.28    2.82
   1  -3  10    4.75    1.93
   1  -3  10    2.74    1.42
  -1  -3 -10   -0.75    2.74
  -1  -3 -10    2.19    1.02
   1   3  10    5.05    2.19
  -1   3 -10    2.04    0.88
  -1   3 -10    2.27    2.15
   1   3  10    2.03    1.30
  -2  -3 -10    5.55    1.65
   2  -3  10    2.11    1.52
   2  -3  10    1.48    1.12
  -2  -3 -10    3.87    1.91
  -2   3 -10    3.70    0.87
   2   3  10    1.73    1.37
   2   3  10    0.23    1.04
   2   3  10    2.83    1.46
   3  -3  10    5.78    1.03
  -3   3 -10    3.55    0.61
  -3   3 -10    5.54    1.07
   3   3  10    5.40    1.13
   3  -4 -10    0.47    0.84
  -3  -4  10    0.01    0.89
  -3   4  10   -0.44    0.61
   3   4 -10    0.70    0.72
   2  -4 -10    3.03    0.94
   2  -4 -10    4.55    0.82
  -2  -4  10    0.37    3.00
  -2  -4  10    5.07    1.28
   2   4 -10    3.09    1.02
  -2   4  10    4.07    0.75
   2   4 -10    2.57    0.99
  -1  -4  10    5.53    1.92
  -1  -4  10    5.61    1.78
   1   4 -10    3.06    0.91
   1   4 -10    2.79    1.23
   0  -4 -10   -1.68    1.60
   0  -4  10    1.55    1.57
   0  -4 -10   -0.06    0.88
   0  -4  10   -0.53    0.98
   0   4 -10    0.28    1.64
   0   4  10   -6.95    5.74
   0   4 -10   -0.68    0.73
   1  -4  10    2.72    1.91
   1  -4  10    5.58    1.24
  -1  -4 -10    5.28    1.26
  -1   4 -10    2.42    0.85
  -1   4 -10    4.07    0.82
   1   4  10    1.15    2.08
   2  -4  10    4.15    1.11
   2  -4  10    5.76    1.20
   2   4  10    4.37    1.45
  -2   4 -10    3.34    0.60
   3  -4  10    0.51    0.81
   3  -4  10    0.04    0.66
  -3   4 -10    0.41    1.46
  -3   4 -10    0.03    0.45
   3   4  10    2.00    1.00
   2  -5 -10    5.38    1.06
  -2  -5  10    2.84    2.32
  -2  -5  10    6.04    1.04
  -2   5  10    4.75    0.73
   1  -5 -10    2.89    0.82
   1  -5 -10    2.93    1.15
  -1  -5  10    5.08    1.04
  -1  -5  10    0.55    1.69
  -1   5  10    2.36    0.71
   1   5 -10    2.42    0.82
   1   5 -10    3.76    1.18
   0  -5 -10    1.35    0.87
   0  -5 -10    0.64    3.05
   0  -5  10    1.13    1.08
   0  -5  10    2.42    1.29
   0   5 -10    0.58    0.78
   0   5  10    0.54    0.61
   0   5 -10   -0.83    2.17
   1  -5  10    3.12    1.22
  -1  -5 -10    2.70    1.02
  -1   5 -10    1.88    0.52
  -1   5 -10    3.14    0.85
   2  -5  10    9.90    1.55
  -2  -5 -10    6.39    1.80
  -2   5 -10    6.06    0.95
   2   5  10    6.49    1.43
  -2   5 -10    6.59    0.88
   2  -6 -10    0.04    0.79
  -2  -6  10   -4.88    2.40
   2   6 -10    0.18    1.23
  -2   6  10   -0.37    0.50
  -1  -6  10    1.18    1.45
   1  -6 -10    1.31    0.70
  -1  -6  10   -2.48    1.88
   1   6 -10    1.52    1.29
  -1   6  10    0.85    0.56
   1   6 -10    1.61    1.38
   0  -6 -10    2.36    0.83
   0  -6  10    0.83    2.78
   0  -6  10    1.38    1.30
   0   6  10    0.94    0.56
   0   6 -10    0.88    1.87
   0   6 -10    0.87    0.69
   1  -6  10    0.33    0.96
  -1  -6 -10    0.95    0.96
  -1   6 -10    1.22    0.67
   1   6  10   -0.09    2.31
  -1   6 -10    0.99    0.44
   2   0 -11    0.73    0.76
  -2   0  11    1.40    1.21
   2   0 -11    2.26    0.72
  -1   0  11    8.21    3.62
   1   0 -11   -0.31    0.95
   1   0 -11    1.43    0.88
  -1   0  11    1.41    1.08
   0   0  11   -1.06    1.73
   0   0 -11    1.34    1.06
   0   0 -11    0.46    0.68
   1   0  11    0.65    1.06
   1   0  11    0.91    1.29
  -1   0 -11    0.50    0.72
  -1   0 -11   -1.83    1.32
   2   0  11    1.47    1.13
   2   0  11    1.07    1.01
  -1  -1  11    1.71    1.13
   1  -1 -11    1.73    0.91
   1  -1 -11    0.70    0.74
   1  -1 -11    0.97    0.85
  -1  -1  11    1.02    3.26
  -1   1  11    1.43    0.73
   1   1 -11    1.41    0.98
  -1   1  11    1.17    1.18
   1   1 -11    2.41    0.74
   0  -1 -11    0.37    1.02
   0  -1 -11    2.11    1.36
   0  -1 -11    1.35    0.74
   0  -1  11    1.37    1.06
   0  -1  11    2.12    2.67
   0   1  11    1.35    1.08
   0   1 -11    1.43    0.74
   0   1 -11    3.10    1.13
   0   1  11   -1.15    2.06
   1  -1  11    1.79    1.18
  -1  -1 -11   -0.47    1.26
   1  -1  11    2.15    1.07
  -1  -1 -11    2.83    0.76
   1   1  11    3.47    1.11
   1   1  11    1.32    1.59
  -1   1 -11   -1.06    1.56
  -1   1 -11    2.88    0.80
   1  -2 -11    2.01    0.82
   1  -2 -11    0.99    0.97
  -1  -2  11    0.14    1.00
  -1   2  11    4.73    1.57
   1   2 -11    1.88    1.02
   0  -2  11    0.12    0.99
   0  -2 -11    0.49    0.81
   0  -2 -11    1.12    1.25
   0  -2 -11    0.17    0.93
   0   2  11   -2.68    2.41
   0   2  11   -0.21    1.18
   0   2 -11    1.52    0.69
   0   2 -11    2.23    1.40
  -1  -2 -11    0.72    1.01
  -1  -2 -11    1.06    1.08
   1  -2  11    1.40    1.14
   1  -2  11    2.73    1.05
   1   2  11    5.16    1.25
   1   2  11    3.56    1.49
  -1   2 -11    2.55    2.10
  -1   2 -11    2.65    0.76
   1  -3 -11    4.22    0.80
  -1  -3  11    0.98    2.06
  -1   3  11    2.04    0.57
   1   3 -11    1.96    0.99
   0  -3  11    3.27    1.47
   0  -3  11    1.35    1.18
   0  -3 -11    1.70    0.90
   0   3  11   -0.28    1.68
   0   3 -11    0.55    1.24
   0   3 -11    1.64    0.69
  -1  -3 -11    3.99    1.06
   1  -3  11    2.00    0.99
   1  -3  11    3.40    1.10
   1   3  11    4.62    1.42
   1   3  11    1.39    1.74
  -1   3 -11    4.53    0.84
   0   0   0    0.00    0.00
;
_shelx_hkl_checksum              95602
_olex2_submission_special_instructions 'No special instructions were received'
loop_
_twin_individual_id
_twin_individual_mass_fraction_refined
1 0.572(3)
2 0.428(3)

_exptl_crystal_recrystallization_method 'Re-crystallisation from solvent: DCM'
